/*---------------------------------------------------------------------------*\
| =========                 |                                                 |
| \\      /  F ield         | OpenFOAM: The Open Source CFD Toolbox           |
|  \\    /   O peration     | Version:  v2012                                 |
|   \\  /    A nd           | Website:  www.openfoam.com                      |
|    \\/     M anipulation  |                                                 |
\*---------------------------------------------------------------------------*/
Build  : _7bdb509494-20201222 OPENFOAM=2012
Arch   : "LSB;label=32;scalar=64"
Exec   : solids4Foam
Date   : Aug 22 2023
Time   : 14:49:51
Host   : DESKTOP-19FOE2K
PID    : 21105
I/O    : uncollated
Case   : /home/federico/OpenFOAM/federico-v2012/run/solidBenchmarks/Small-strain/linearElasticity/cubeMMS/vertexCentredLinearGeometry/structuredQuadrilaterals/vertex.4
nProcs : 1
trapFpe: Floating point exception trapping enabled (FOAM_SIGFPE).
fileModificationChecking : Monitoring run-time modified files using timeStampMaster (fileModificationSkew 5, maxFileModificationPolls 20)
allowSystemOperations : Allowing user-supplied system call operations

// * * * * * * * * * * * * * * * * * * * * * * * * * * * * * * * * * * * * * //
Create time

--> FOAM Warning : 
    From static Foam::IOstreamOption::compressionType Foam::IOstreamOption::compressionEnum(const Foam::word&, Foam::IOstreamOption::compressionType)
    in file db/IOstreams/IOstreams/IOstreamOption.C at line 115
    Unknown compression specifier 'uncompressed', using compression off
/*---------------------------------------------------------------------------*\
|    For further information on the solids4Foam toolbox implementations,      |
|    please see the following publications:                                   |
|                                                                             |
|    P. Cardiff, A Karac, P. De Jaeger, H. Jasak, J. Nagy, A. Ivankovic,      |
|    Z. Tukovic: An open-source finite volume toolbox for solid mechanics and |
|    fluid-solid interaction simulations. arXiv:1808.10736v2, 2018, available |
|    at https://arxiv.org/abs/1808.10736.                                     |
|                                                                             |
|    Z. Tukovic, A. Karac, P. Cardiff, H. Jasak, A. Ivankovic: OpenFOAM       |
|    finite volume solver for fluid-solid interaction.  Transactions of       |
|    Famena, 42 (3), pp. 1-31, 2018, 10.21278/TOF.42301.                      |
\*---------------------------------------------------------------------------*/

Selecting physicsModel solidModel
Selecting solidModel vertexCentredLinearGeometryMMS
Selecting dynamicFvMesh staticFvMesh
    under-relaxation method: fixed
Creating dualMesh
    featureAngle: 30
    doNotPreserveFaceZones: 0
    concaveMultiCells: 0
Creating the mechanicalModel
Selecting mechanical law linearElastic
Creating the dualMechanicalModel
Selecting mechanical law linearElastic
fixedDofScale: 1
Time = 1

Evolving solid solver
    Solving
  0 KSP Residual norm 5.60143e+06 
  1 KSP Residual norm 934064. 
  2 KSP Residual norm 252520. 
  3 KSP Residual norm 87589.3 
  4 KSP Residual norm 37974.4 
  5 KSP Residual norm 18851.1 
  6 KSP Residual norm 9879.23 
  7 KSP Residual norm 4853.74 
  8 KSP Residual norm 2425.87 
  9 KSP Residual norm 1235.89 
 10 KSP Residual norm 656.799 
 11 KSP Residual norm 309.064 
 12 KSP Residual norm 132.731 
 13 KSP Residual norm 56.3633 
 14 KSP Residual norm 27.8616 
 15 KSP Residual norm 15.4886 
 16 KSP Residual norm 8.16767 
 17 KSP Residual norm 3.72157 
 18 KSP Residual norm 1.66472 
 19 KSP Residual norm 0.858874 
 20 KSP Residual norm 0.470517 
 21 KSP Residual norm 0.231237 
 22 KSP Residual norm 0.0993414 
 23 KSP Residual norm 0.0422049 
 24 KSP Residual norm 0.0188759 
 25 KSP Residual norm 0.00825745 
 26 KSP Residual norm 0.00364432 
 27 KSP Residual norm 0.00149965 
 28 KSP Residual norm 0.000699021 
 29 KSP Residual norm 0.000331163 
 30 KSP Residual norm 0.000132251 
 31 KSP Residual norm 5.22115e-05 
 32 KSP Residual norm 1.97766e-05 
 33 KSP Residual norm 6.7005e-06 
 34 KSP Residual norm 2.24864e-06 
    Initial residual = 4.10811e+13
    Iter = 0, relRef = 1, res = 6.40946e+06, resAbs = 4.10811e+13, nIters = 34, maxD = 113106
    Solving
  0 KSP Residual norm 5.60143e+06 
  1 KSP Residual norm 934064. 
  2 KSP Residual norm 252520. 
  3 KSP Residual norm 87589.3 
  4 KSP Residual norm 37974.4 
  5 KSP Residual norm 18851.1 
  6 KSP Residual norm 9879.23 
  7 KSP Residual norm 4853.74 
  8 KSP Residual norm 2425.87 
  9 KSP Residual norm 1235.89 
 10 KSP Residual norm 656.799 
 11 KSP Residual norm 309.064 
 12 KSP Residual norm 132.731 
 13 KSP Residual norm 56.3633 
 14 KSP Residual norm 27.8616 
 15 KSP Residual norm 15.4886 
 16 KSP Residual norm 8.16767 
 17 KSP Residual norm 3.72157 
 18 KSP Residual norm 1.66472 
 19 KSP Residual norm 0.858874 
 20 KSP Residual norm 0.470517 
 21 KSP Residual norm 0.231237 
 22 KSP Residual norm 0.0993414 
 23 KSP Residual norm 0.0422049 
 24 KSP Residual norm 0.0188759 
 25 KSP Residual norm 0.00825745 
 26 KSP Residual norm 0.00364432 
 27 KSP Residual norm 0.00149965 
 28 KSP Residual norm 0.000699021 
 29 KSP Residual norm 0.000331163 
 30 KSP Residual norm 0.000132251 
 31 KSP Residual norm 5.22115e-05 
 32 KSP Residual norm 1.97766e-05 
 33 KSP Residual norm 6.7005e-06 
 34 KSP Residual norm 2.24864e-06 
    Iter = 1, relRef = 1, res = 6.40946e+06, resAbs = 4.10811e+13, nIters = 34, maxD = 226212
    Solving
  0 KSP Residual norm 5.60143e+06 
  1 KSP Residual norm 934064. 
  2 KSP Residual norm 252520. 
  3 KSP Residual norm 87589.3 
  4 KSP Residual norm 37974.4 
  5 KSP Residual norm 18851.1 
  6 KSP Residual norm 9879.23 
  7 KSP Residual norm 4853.74 
  8 KSP Residual norm 2425.87 
  9 KSP Residual norm 1235.89 
 10 KSP Residual norm 656.799 
 11 KSP Residual norm 309.064 
 12 KSP Residual norm 132.731 
 13 KSP Residual norm 56.3633 
 14 KSP Residual norm 27.8616 
 15 KSP Residual norm 15.4886 
 16 KSP Residual norm 8.16767 
 17 KSP Residual norm 3.72157 
 18 KSP Residual norm 1.66472 
 19 KSP Residual norm 0.858874 
 20 KSP Residual norm 0.470517 
 21 KSP Residual norm 0.231237 
 22 KSP Residual norm 0.0993414 
 23 KSP Residual norm 0.0422049 
 24 KSP Residual norm 0.0188759 
 25 KSP Residual norm 0.00825745 
 26 KSP Residual norm 0.00364432 
 27 KSP Residual norm 0.00149965 
 28 KSP Residual norm 0.000699021 
 29 KSP Residual norm 0.000331163 
 30 KSP Residual norm 0.000132251 
 31 KSP Residual norm 5.22115e-05 
 32 KSP Residual norm 1.97766e-05 
 33 KSP Residual norm 6.7005e-06 
 34 KSP Residual norm 2.24864e-06 
    Iter = 2, relRef = 1, res = 6.40946e+06, resAbs = 4.10811e+13, nIters = 34, maxD = 339318
    Solving
  0 KSP Residual norm 5.60143e+06 
  1 KSP Residual norm 934064. 
  2 KSP Residual norm 252520. 
  3 KSP Residual norm 87589.3 
  4 KSP Residual norm 37974.4 
  5 KSP Residual norm 18851.1 
  6 KSP Residual norm 9879.23 
  7 KSP Residual norm 4853.74 
  8 KSP Residual norm 2425.87 
  9 KSP Residual norm 1235.89 
 10 KSP Residual norm 656.799 
 11 KSP Residual norm 309.064 
 12 KSP Residual norm 132.731 
 13 KSP Residual norm 56.3633 
 14 KSP Residual norm 27.8616 
 15 KSP Residual norm 15.4886 
 16 KSP Residual norm 8.16767 
 17 KSP Residual norm 3.72157 
 18 KSP Residual norm 1.66472 
 19 KSP Residual norm 0.858874 
 20 KSP Residual norm 0.470517 
 21 KSP Residual norm 0.231237 
 22 KSP Residual norm 0.0993414 
 23 KSP Residual norm 0.0422049 
 24 KSP Residual norm 0.0188759 
 25 KSP Residual norm 0.00825745 
 26 KSP Residual norm 0.00364432 
 27 KSP Residual norm 0.00149965 
 28 KSP Residual norm 0.000699021 
 29 KSP Residual norm 0.000331163 
 30 KSP Residual norm 0.000132251 
 31 KSP Residual norm 5.22115e-05 
 32 KSP Residual norm 1.97766e-05 
 33 KSP Residual norm 6.7005e-06 
 34 KSP Residual norm 2.24864e-06 
    Iter = 3, relRef = 1, res = 6.40946e+06, resAbs = 4.10811e+13, nIters = 34, maxD = 452424
    Solving
  0 KSP Residual norm 5.60143e+06 
  1 KSP Residual norm 934064. 
  2 KSP Residual norm 252520. 
  3 KSP Residual norm 87589.3 
  4 KSP Residual norm 37974.4 
  5 KSP Residual norm 18851.1 
  6 KSP Residual norm 9879.23 
  7 KSP Residual norm 4853.74 
  8 KSP Residual norm 2425.87 
  9 KSP Residual norm 1235.89 
 10 KSP Residual norm 656.799 
 11 KSP Residual norm 309.064 
 12 KSP Residual norm 132.731 
 13 KSP Residual norm 56.3633 
 14 KSP Residual norm 27.8616 
 15 KSP Residual norm 15.4886 
 16 KSP Residual norm 8.16767 
 17 KSP Residual norm 3.72157 
 18 KSP Residual norm 1.66472 
 19 KSP Residual norm 0.858874 
 20 KSP Residual norm 0.470517 
 21 KSP Residual norm 0.231237 
 22 KSP Residual norm 0.0993414 
 23 KSP Residual norm 0.0422049 
 24 KSP Residual norm 0.0188759 
 25 KSP Residual norm 0.00825745 
 26 KSP Residual norm 0.00364432 
 27 KSP Residual norm 0.00149965 
 28 KSP Residual norm 0.000699021 
 29 KSP Residual norm 0.000331163 
 30 KSP Residual norm 0.000132251 
 31 KSP Residual norm 5.22115e-05 
 32 KSP Residual norm 1.97766e-05 
 33 KSP Residual norm 6.7005e-06 
 34 KSP Residual norm 2.24864e-06 
    Iter = 4, relRef = 1, res = 6.40946e+06, resAbs = 4.10811e+13, nIters = 34, maxD = 565530
    Solving
  0 KSP Residual norm 5.60143e+06 
  1 KSP Residual norm 934064. 
  2 KSP Residual norm 252520. 
  3 KSP Residual norm 87589.3 
  4 KSP Residual norm 37974.4 
  5 KSP Residual norm 18851.1 
  6 KSP Residual norm 9879.23 
  7 KSP Residual norm 4853.74 
  8 KSP Residual norm 2425.87 
  9 KSP Residual norm 1235.89 
 10 KSP Residual norm 656.799 
 11 KSP Residual norm 309.064 
 12 KSP Residual norm 132.731 
 13 KSP Residual norm 56.3633 
 14 KSP Residual norm 27.8616 
 15 KSP Residual norm 15.4886 
 16 KSP Residual norm 8.16767 
 17 KSP Residual norm 3.72157 
 18 KSP Residual norm 1.66472 
 19 KSP Residual norm 0.858874 
 20 KSP Residual norm 0.470517 
 21 KSP Residual norm 0.231237 
 22 KSP Residual norm 0.0993414 
 23 KSP Residual norm 0.0422049 
 24 KSP Residual norm 0.0188759 
 25 KSP Residual norm 0.00825745 
 26 KSP Residual norm 0.00364432 
 27 KSP Residual norm 0.00149965 
 28 KSP Residual norm 0.000699021 
 29 KSP Residual norm 0.000331163 
 30 KSP Residual norm 0.000132251 
 31 KSP Residual norm 5.22115e-05 
 32 KSP Residual norm 1.97766e-05 
 33 KSP Residual norm 6.7005e-06 
 34 KSP Residual norm 2.24864e-06 
    Iter = 5, relRef = 1, res = 6.40946e+06, resAbs = 4.10811e+13, nIters = 34, maxD = 678636
    Solving
  0 KSP Residual norm 5.60143e+06 
  1 KSP Residual norm 934064. 
  2 KSP Residual norm 252520. 
  3 KSP Residual norm 87589.3 
  4 KSP Residual norm 37974.4 
  5 KSP Residual norm 18851.1 
  6 KSP Residual norm 9879.23 
  7 KSP Residual norm 4853.74 
  8 KSP Residual norm 2425.87 
  9 KSP Residual norm 1235.89 
 10 KSP Residual norm 656.799 
 11 KSP Residual norm 309.064 
 12 KSP Residual norm 132.731 
 13 KSP Residual norm 56.3633 
 14 KSP Residual norm 27.8616 
 15 KSP Residual norm 15.4886 
 16 KSP Residual norm 8.16767 
 17 KSP Residual norm 3.72157 
 18 KSP Residual norm 1.66472 
 19 KSP Residual norm 0.858874 
 20 KSP Residual norm 0.470517 
 21 KSP Residual norm 0.231237 
 22 KSP Residual norm 0.0993414 
 23 KSP Residual norm 0.0422049 
 24 KSP Residual norm 0.0188759 
 25 KSP Residual norm 0.00825745 
 26 KSP Residual norm 0.00364432 
 27 KSP Residual norm 0.00149965 
 28 KSP Residual norm 0.000699021 
 29 KSP Residual norm 0.000331163 
 30 KSP Residual norm 0.000132251 
 31 KSP Residual norm 5.22115e-05 
 32 KSP Residual norm 1.97766e-05 
 33 KSP Residual norm 6.7005e-06 
 34 KSP Residual norm 2.24864e-06 
    Iter = 6, relRef = 1, res = 6.40946e+06, resAbs = 4.10811e+13, nIters = 34, maxD = 791742
    Solving
  0 KSP Residual norm 5.60143e+06 
  1 KSP Residual norm 934064. 
  2 KSP Residual norm 252520. 
  3 KSP Residual norm 87589.3 
  4 KSP Residual norm 37974.4 
  5 KSP Residual norm 18851.1 
  6 KSP Residual norm 9879.23 
  7 KSP Residual norm 4853.74 
  8 KSP Residual norm 2425.87 
  9 KSP Residual norm 1235.89 
 10 KSP Residual norm 656.799 
 11 KSP Residual norm 309.064 
 12 KSP Residual norm 132.731 
 13 KSP Residual norm 56.3633 
 14 KSP Residual norm 27.8616 
 15 KSP Residual norm 15.4886 
 16 KSP Residual norm 8.16767 
 17 KSP Residual norm 3.72157 
 18 KSP Residual norm 1.66472 
 19 KSP Residual norm 0.858874 
 20 KSP Residual norm 0.470517 
 21 KSP Residual norm 0.231237 
 22 KSP Residual norm 0.0993414 
 23 KSP Residual norm 0.0422049 
 24 KSP Residual norm 0.0188759 
 25 KSP Residual norm 0.00825745 
 26 KSP Residual norm 0.00364432 
 27 KSP Residual norm 0.00149965 
 28 KSP Residual norm 0.000699021 
 29 KSP Residual norm 0.000331163 
 30 KSP Residual norm 0.000132251 
 31 KSP Residual norm 5.22115e-05 
 32 KSP Residual norm 1.97766e-05 
 33 KSP Residual norm 6.7005e-06 
 34 KSP Residual norm 2.24864e-06 
    Iter = 7, relRef = 1, res = 6.40946e+06, resAbs = 4.10811e+13, nIters = 34, maxD = 904848
    Solving
  0 KSP Residual norm 5.60143e+06 
  1 KSP Residual norm 934064. 
  2 KSP Residual norm 252520. 
  3 KSP Residual norm 87589.3 
  4 KSP Residual norm 37974.4 
  5 KSP Residual norm 18851.1 
  6 KSP Residual norm 9879.23 
  7 KSP Residual norm 4853.74 
  8 KSP Residual norm 2425.87 
  9 KSP Residual norm 1235.89 
 10 KSP Residual norm 656.799 
 11 KSP Residual norm 309.064 
 12 KSP Residual norm 132.731 
 13 KSP Residual norm 56.3633 
 14 KSP Residual norm 27.8616 
 15 KSP Residual norm 15.4886 
 16 KSP Residual norm 8.16767 
 17 KSP Residual norm 3.72157 
 18 KSP Residual norm 1.66472 
 19 KSP Residual norm 0.858874 
 20 KSP Residual norm 0.470517 
 21 KSP Residual norm 0.231237 
 22 KSP Residual norm 0.0993414 
 23 KSP Residual norm 0.0422049 
 24 KSP Residual norm 0.0188759 
 25 KSP Residual norm 0.00825745 
 26 KSP Residual norm 0.00364432 
 27 KSP Residual norm 0.00149965 
 28 KSP Residual norm 0.000699021 
 29 KSP Residual norm 0.000331163 
 30 KSP Residual norm 0.000132251 
 31 KSP Residual norm 5.22115e-05 
 32 KSP Residual norm 1.97766e-05 
 33 KSP Residual norm 6.7005e-06 
 34 KSP Residual norm 2.24864e-06 
    Iter = 8, relRef = 1, res = 6.40946e+06, resAbs = 4.10811e+13, nIters = 34, maxD = 1.01795e+06
    Solving
  0 KSP Residual norm 5.60143e+06 
  1 KSP Residual norm 934064. 
  2 KSP Residual norm 252520. 
  3 KSP Residual norm 87589.3 
  4 KSP Residual norm 37974.4 
  5 KSP Residual norm 18851.1 
  6 KSP Residual norm 9879.23 
  7 KSP Residual norm 4853.74 
  8 KSP Residual norm 2425.87 
  9 KSP Residual norm 1235.89 
 10 KSP Residual norm 656.799 
 11 KSP Residual norm 309.064 
 12 KSP Residual norm 132.731 
 13 KSP Residual norm 56.3633 
 14 KSP Residual norm 27.8616 
 15 KSP Residual norm 15.4886 
 16 KSP Residual norm 8.16767 
 17 KSP Residual norm 3.72157 
 18 KSP Residual norm 1.66472 
 19 KSP Residual norm 0.858874 
 20 KSP Residual norm 0.470517 
 21 KSP Residual norm 0.231237 
 22 KSP Residual norm 0.0993414 
 23 KSP Residual norm 0.0422049 
 24 KSP Residual norm 0.0188759 
 25 KSP Residual norm 0.00825745 
 26 KSP Residual norm 0.00364432 
 27 KSP Residual norm 0.00149965 
 28 KSP Residual norm 0.000699021 
 29 KSP Residual norm 0.000331163 
 30 KSP Residual norm 0.000132251 
 31 KSP Residual norm 5.22115e-05 
 32 KSP Residual norm 1.97766e-05 
 33 KSP Residual norm 6.7005e-06 
 34 KSP Residual norm 2.24864e-06 
    Iter = 9, relRef = 1, res = 6.40946e+06, resAbs = 4.10811e+13, nIters = 34, maxD = 1.13106e+06
    Solving
  0 KSP Residual norm 5.60143e+06 
  1 KSP Residual norm 934064. 
  2 KSP Residual norm 252520. 
  3 KSP Residual norm 87589.3 
  4 KSP Residual norm 37974.4 
  5 KSP Residual norm 18851.1 
  6 KSP Residual norm 9879.23 
  7 KSP Residual norm 4853.74 
  8 KSP Residual norm 2425.87 
  9 KSP Residual norm 1235.89 
 10 KSP Residual norm 656.799 
 11 KSP Residual norm 309.064 
 12 KSP Residual norm 132.731 
 13 KSP Residual norm 56.3633 
 14 KSP Residual norm 27.8616 
 15 KSP Residual norm 15.4886 
 16 KSP Residual norm 8.16767 
 17 KSP Residual norm 3.72157 
 18 KSP Residual norm 1.66472 
 19 KSP Residual norm 0.858874 
 20 KSP Residual norm 0.470517 
 21 KSP Residual norm 0.231237 
 22 KSP Residual norm 0.0993414 
 23 KSP Residual norm 0.0422049 
 24 KSP Residual norm 0.0188759 
 25 KSP Residual norm 0.00825745 
 26 KSP Residual norm 0.00364432 
 27 KSP Residual norm 0.00149965 
 28 KSP Residual norm 0.000699021 
 29 KSP Residual norm 0.000331163 
 30 KSP Residual norm 0.000132251 
 31 KSP Residual norm 5.22115e-05 
 32 KSP Residual norm 1.97766e-05 
 33 KSP Residual norm 6.7005e-06 
 34 KSP Residual norm 2.24864e-06 
    Iter = 10, relRef = 1, res = 6.40946e+06, resAbs = 4.10811e+13, nIters = 34, maxD = 1.24417e+06
    Solving
  0 KSP Residual norm 5.60143e+06 
  1 KSP Residual norm 934064. 
  2 KSP Residual norm 252520. 
  3 KSP Residual norm 87589.3 
  4 KSP Residual norm 37974.4 
  5 KSP Residual norm 18851.1 
  6 KSP Residual norm 9879.23 
  7 KSP Residual norm 4853.74 
  8 KSP Residual norm 2425.87 
  9 KSP Residual norm 1235.89 
 10 KSP Residual norm 656.799 
 11 KSP Residual norm 309.064 
 12 KSP Residual norm 132.731 
 13 KSP Residual norm 56.3633 
 14 KSP Residual norm 27.8616 
 15 KSP Residual norm 15.4886 
 16 KSP Residual norm 8.16767 
 17 KSP Residual norm 3.72157 
 18 KSP Residual norm 1.66472 
 19 KSP Residual norm 0.858874 
 20 KSP Residual norm 0.470517 
 21 KSP Residual norm 0.231237 
 22 KSP Residual norm 0.0993414 
 23 KSP Residual norm 0.0422049 
 24 KSP Residual norm 0.0188759 
 25 KSP Residual norm 0.00825745 
 26 KSP Residual norm 0.00364432 
 27 KSP Residual norm 0.00149965 
 28 KSP Residual norm 0.000699021 
 29 KSP Residual norm 0.000331163 
 30 KSP Residual norm 0.000132251 
 31 KSP Residual norm 5.22115e-05 
 32 KSP Residual norm 1.97766e-05 
 33 KSP Residual norm 6.7005e-06 
 34 KSP Residual norm 2.24864e-06 
    Iter = 11, relRef = 1, res = 6.40946e+06, resAbs = 4.10811e+13, nIters = 34, maxD = 1.35727e+06
    Solving
  0 KSP Residual norm 5.60143e+06 
  1 KSP Residual norm 934064. 
  2 KSP Residual norm 252520. 
  3 KSP Residual norm 87589.3 
  4 KSP Residual norm 37974.4 
  5 KSP Residual norm 18851.1 
  6 KSP Residual norm 9879.23 
  7 KSP Residual norm 4853.74 
  8 KSP Residual norm 2425.87 
  9 KSP Residual norm 1235.89 
 10 KSP Residual norm 656.799 
 11 KSP Residual norm 309.064 
 12 KSP Residual norm 132.731 
 13 KSP Residual norm 56.3633 
 14 KSP Residual norm 27.8616 
 15 KSP Residual norm 15.4886 
 16 KSP Residual norm 8.16767 
 17 KSP Residual norm 3.72157 
 18 KSP Residual norm 1.66472 
 19 KSP Residual norm 0.858874 
 20 KSP Residual norm 0.470517 
 21 KSP Residual norm 0.231237 
 22 KSP Residual norm 0.0993414 
 23 KSP Residual norm 0.0422049 
 24 KSP Residual norm 0.0188759 
 25 KSP Residual norm 0.00825745 
 26 KSP Residual norm 0.00364432 
 27 KSP Residual norm 0.00149965 
 28 KSP Residual norm 0.000699021 
 29 KSP Residual norm 0.000331163 
 30 KSP Residual norm 0.000132251 
 31 KSP Residual norm 5.22115e-05 
 32 KSP Residual norm 1.97766e-05 
 33 KSP Residual norm 6.7005e-06 
 34 KSP Residual norm 2.24864e-06 
    Iter = 12, relRef = 1, res = 6.40946e+06, resAbs = 4.10811e+13, nIters = 34, maxD = 1.47038e+06
    Solving
  0 KSP Residual norm 5.60143e+06 
  1 KSP Residual norm 934064. 
  2 KSP Residual norm 252520. 
  3 KSP Residual norm 87589.3 
  4 KSP Residual norm 37974.4 
  5 KSP Residual norm 18851.1 
  6 KSP Residual norm 9879.23 
  7 KSP Residual norm 4853.74 
  8 KSP Residual norm 2425.87 
  9 KSP Residual norm 1235.89 
 10 KSP Residual norm 656.799 
 11 KSP Residual norm 309.064 
 12 KSP Residual norm 132.731 
 13 KSP Residual norm 56.3633 
 14 KSP Residual norm 27.8616 
 15 KSP Residual norm 15.4886 
 16 KSP Residual norm 8.16767 
 17 KSP Residual norm 3.72157 
 18 KSP Residual norm 1.66472 
 19 KSP Residual norm 0.858874 
 20 KSP Residual norm 0.470517 
 21 KSP Residual norm 0.231237 
 22 KSP Residual norm 0.0993414 
 23 KSP Residual norm 0.0422049 
 24 KSP Residual norm 0.0188759 
 25 KSP Residual norm 0.00825745 
 26 KSP Residual norm 0.00364432 
 27 KSP Residual norm 0.00149965 
 28 KSP Residual norm 0.000699021 
 29 KSP Residual norm 0.000331163 
 30 KSP Residual norm 0.000132251 
 31 KSP Residual norm 5.22115e-05 
 32 KSP Residual norm 1.97766e-05 
 33 KSP Residual norm 6.7005e-06 
 34 KSP Residual norm 2.24864e-06 
    Iter = 13, relRef = 1, res = 6.40946e+06, resAbs = 4.10811e+13, nIters = 34, maxD = 1.58348e+06
    Solving
  0 KSP Residual norm 5.60143e+06 
  1 KSP Residual norm 934064. 
  2 KSP Residual norm 252520. 
  3 KSP Residual norm 87589.3 
  4 KSP Residual norm 37974.4 
  5 KSP Residual norm 18851.1 
  6 KSP Residual norm 9879.23 
  7 KSP Residual norm 4853.74 
  8 KSP Residual norm 2425.87 
  9 KSP Residual norm 1235.89 
 10 KSP Residual norm 656.799 
 11 KSP Residual norm 309.064 
 12 KSP Residual norm 132.731 
 13 KSP Residual norm 56.3633 
 14 KSP Residual norm 27.8616 
 15 KSP Residual norm 15.4886 
 16 KSP Residual norm 8.16767 
 17 KSP Residual norm 3.72157 
 18 KSP Residual norm 1.66472 
 19 KSP Residual norm 0.858874 
 20 KSP Residual norm 0.470517 
 21 KSP Residual norm 0.231237 
 22 KSP Residual norm 0.0993414 
 23 KSP Residual norm 0.0422049 
 24 KSP Residual norm 0.0188759 
 25 KSP Residual norm 0.00825745 
 26 KSP Residual norm 0.00364432 
 27 KSP Residual norm 0.00149965 
 28 KSP Residual norm 0.000699021 
 29 KSP Residual norm 0.000331163 
 30 KSP Residual norm 0.000132251 
 31 KSP Residual norm 5.22115e-05 
 32 KSP Residual norm 1.97766e-05 
 33 KSP Residual norm 6.7005e-06 
 34 KSP Residual norm 2.24864e-06 
    Iter = 14, relRef = 1, res = 6.40946e+06, resAbs = 4.10811e+13, nIters = 34, maxD = 1.69659e+06
    Solving
  0 KSP Residual norm 5.60143e+06 
  1 KSP Residual norm 934064. 
  2 KSP Residual norm 252520. 
  3 KSP Residual norm 87589.3 
  4 KSP Residual norm 37974.4 
  5 KSP Residual norm 18851.1 
  6 KSP Residual norm 9879.23 
  7 KSP Residual norm 4853.74 
  8 KSP Residual norm 2425.87 
  9 KSP Residual norm 1235.89 
 10 KSP Residual norm 656.799 
 11 KSP Residual norm 309.064 
 12 KSP Residual norm 132.731 
 13 KSP Residual norm 56.3633 
 14 KSP Residual norm 27.8616 
 15 KSP Residual norm 15.4886 
 16 KSP Residual norm 8.16767 
 17 KSP Residual norm 3.72157 
 18 KSP Residual norm 1.66472 
 19 KSP Residual norm 0.858874 
 20 KSP Residual norm 0.470517 
 21 KSP Residual norm 0.231237 
 22 KSP Residual norm 0.0993414 
 23 KSP Residual norm 0.0422049 
 24 KSP Residual norm 0.0188759 
 25 KSP Residual norm 0.00825745 
 26 KSP Residual norm 0.00364432 
 27 KSP Residual norm 0.00149965 
 28 KSP Residual norm 0.000699021 
 29 KSP Residual norm 0.000331163 
 30 KSP Residual norm 0.000132251 
 31 KSP Residual norm 5.22115e-05 
 32 KSP Residual norm 1.97766e-05 
 33 KSP Residual norm 6.7005e-06 
 34 KSP Residual norm 2.24864e-06 
    Iter = 15, relRef = 1, res = 6.40946e+06, resAbs = 4.10811e+13, nIters = 34, maxD = 1.8097e+06
    Solving
  0 KSP Residual norm 5.60143e+06 
  1 KSP Residual norm 934064. 
  2 KSP Residual norm 252520. 
  3 KSP Residual norm 87589.3 
  4 KSP Residual norm 37974.4 
  5 KSP Residual norm 18851.1 
  6 KSP Residual norm 9879.23 
  7 KSP Residual norm 4853.74 
  8 KSP Residual norm 2425.87 
  9 KSP Residual norm 1235.89 
 10 KSP Residual norm 656.799 
 11 KSP Residual norm 309.064 
 12 KSP Residual norm 132.731 
 13 KSP Residual norm 56.3633 
 14 KSP Residual norm 27.8616 
 15 KSP Residual norm 15.4886 
 16 KSP Residual norm 8.16767 
 17 KSP Residual norm 3.72157 
 18 KSP Residual norm 1.66472 
 19 KSP Residual norm 0.858874 
 20 KSP Residual norm 0.470517 
 21 KSP Residual norm 0.231237 
 22 KSP Residual norm 0.0993414 
 23 KSP Residual norm 0.0422049 
 24 KSP Residual norm 0.0188759 
 25 KSP Residual norm 0.00825745 
 26 KSP Residual norm 0.00364432 
 27 KSP Residual norm 0.00149965 
 28 KSP Residual norm 0.000699021 
 29 KSP Residual norm 0.000331163 
 30 KSP Residual norm 0.000132251 
 31 KSP Residual norm 5.22115e-05 
 32 KSP Residual norm 1.97766e-05 
 33 KSP Residual norm 6.7005e-06 
 34 KSP Residual norm 2.24864e-06 
    Iter = 16, relRef = 1, res = 6.40946e+06, resAbs = 4.10811e+13, nIters = 34, maxD = 1.9228e+06
    Solving
  0 KSP Residual norm 5.60143e+06 
  1 KSP Residual norm 934064. 
  2 KSP Residual norm 252520. 
  3 KSP Residual norm 87589.3 
  4 KSP Residual norm 37974.4 
  5 KSP Residual norm 18851.1 
  6 KSP Residual norm 9879.23 
  7 KSP Residual norm 4853.74 
  8 KSP Residual norm 2425.87 
  9 KSP Residual norm 1235.89 
 10 KSP Residual norm 656.799 
 11 KSP Residual norm 309.064 
 12 KSP Residual norm 132.731 
 13 KSP Residual norm 56.3633 
 14 KSP Residual norm 27.8616 
 15 KSP Residual norm 15.4886 
 16 KSP Residual norm 8.16767 
 17 KSP Residual norm 3.72157 
 18 KSP Residual norm 1.66472 
 19 KSP Residual norm 0.858874 
 20 KSP Residual norm 0.470517 
 21 KSP Residual norm 0.231237 
 22 KSP Residual norm 0.0993414 
 23 KSP Residual norm 0.0422049 
 24 KSP Residual norm 0.0188759 
 25 KSP Residual norm 0.00825745 
 26 KSP Residual norm 0.00364432 
 27 KSP Residual norm 0.00149965 
 28 KSP Residual norm 0.000699021 
 29 KSP Residual norm 0.000331163 
 30 KSP Residual norm 0.000132251 
 31 KSP Residual norm 5.22115e-05 
 32 KSP Residual norm 1.97766e-05 
 33 KSP Residual norm 6.7005e-06 
 34 KSP Residual norm 2.24864e-06 
    Iter = 17, relRef = 1, res = 6.40946e+06, resAbs = 4.10811e+13, nIters = 34, maxD = 2.03591e+06
    Solving
  0 KSP Residual norm 5.60143e+06 
  1 KSP Residual norm 934064. 
  2 KSP Residual norm 252520. 
  3 KSP Residual norm 87589.3 
  4 KSP Residual norm 37974.4 
  5 KSP Residual norm 18851.1 
  6 KSP Residual norm 9879.23 
  7 KSP Residual norm 4853.74 
  8 KSP Residual norm 2425.87 
  9 KSP Residual norm 1235.89 
 10 KSP Residual norm 656.799 
 11 KSP Residual norm 309.064 
 12 KSP Residual norm 132.731 
 13 KSP Residual norm 56.3633 
 14 KSP Residual norm 27.8616 
 15 KSP Residual norm 15.4886 
 16 KSP Residual norm 8.16767 
 17 KSP Residual norm 3.72157 
 18 KSP Residual norm 1.66472 
 19 KSP Residual norm 0.858874 
 20 KSP Residual norm 0.470517 
 21 KSP Residual norm 0.231237 
 22 KSP Residual norm 0.0993414 
 23 KSP Residual norm 0.0422049 
 24 KSP Residual norm 0.0188759 
 25 KSP Residual norm 0.00825745 
 26 KSP Residual norm 0.00364432 
 27 KSP Residual norm 0.00149965 
 28 KSP Residual norm 0.000699021 
 29 KSP Residual norm 0.000331163 
 30 KSP Residual norm 0.000132251 
 31 KSP Residual norm 5.22115e-05 
 32 KSP Residual norm 1.97766e-05 
 33 KSP Residual norm 6.7005e-06 
 34 KSP Residual norm 2.24864e-06 
    Iter = 18, relRef = 1, res = 6.40946e+06, resAbs = 4.10811e+13, nIters = 34, maxD = 2.14901e+06
    Solving
  0 KSP Residual norm 5.60143e+06 
  1 KSP Residual norm 934064. 
  2 KSP Residual norm 252520. 
  3 KSP Residual norm 87589.3 
  4 KSP Residual norm 37974.4 
  5 KSP Residual norm 18851.1 
  6 KSP Residual norm 9879.23 
  7 KSP Residual norm 4853.74 
  8 KSP Residual norm 2425.87 
  9 KSP Residual norm 1235.89 
 10 KSP Residual norm 656.799 
 11 KSP Residual norm 309.064 
 12 KSP Residual norm 132.731 
 13 KSP Residual norm 56.3633 
 14 KSP Residual norm 27.8616 
 15 KSP Residual norm 15.4886 
 16 KSP Residual norm 8.16767 
 17 KSP Residual norm 3.72157 
 18 KSP Residual norm 1.66472 
 19 KSP Residual norm 0.858874 
 20 KSP Residual norm 0.470517 
 21 KSP Residual norm 0.231237 
 22 KSP Residual norm 0.0993414 
 23 KSP Residual norm 0.0422049 
 24 KSP Residual norm 0.0188759 
 25 KSP Residual norm 0.00825745 
 26 KSP Residual norm 0.00364432 
 27 KSP Residual norm 0.00149965 
 28 KSP Residual norm 0.000699021 
 29 KSP Residual norm 0.000331163 
 30 KSP Residual norm 0.000132251 
 31 KSP Residual norm 5.22115e-05 
 32 KSP Residual norm 1.97766e-05 
 33 KSP Residual norm 6.7005e-06 
 34 KSP Residual norm 2.24864e-06 
    Iter = 19, relRef = 1, res = 6.40946e+06, resAbs = 4.10811e+13, nIters = 34, maxD = 2.26212e+06
    Solving
  0 KSP Residual norm 5.60143e+06 
  1 KSP Residual norm 934064. 
  2 KSP Residual norm 252520. 
  3 KSP Residual norm 87589.3 
  4 KSP Residual norm 37974.4 
  5 KSP Residual norm 18851.1 
  6 KSP Residual norm 9879.23 
  7 KSP Residual norm 4853.74 
  8 KSP Residual norm 2425.87 
  9 KSP Residual norm 1235.89 
 10 KSP Residual norm 656.799 
 11 KSP Residual norm 309.064 
 12 KSP Residual norm 132.731 
 13 KSP Residual norm 56.3633 
 14 KSP Residual norm 27.8616 
 15 KSP Residual norm 15.4886 
 16 KSP Residual norm 8.16767 
 17 KSP Residual norm 3.72157 
 18 KSP Residual norm 1.66472 
 19 KSP Residual norm 0.858874 
 20 KSP Residual norm 0.470517 
 21 KSP Residual norm 0.231237 
 22 KSP Residual norm 0.0993414 
 23 KSP Residual norm 0.0422049 
 24 KSP Residual norm 0.0188759 
 25 KSP Residual norm 0.00825745 
 26 KSP Residual norm 0.00364432 
 27 KSP Residual norm 0.00149965 
 28 KSP Residual norm 0.000699021 
 29 KSP Residual norm 0.000331163 
 30 KSP Residual norm 0.000132251 
 31 KSP Residual norm 5.22115e-05 
 32 KSP Residual norm 1.97766e-05 
 33 KSP Residual norm 6.7005e-06 
 34 KSP Residual norm 2.24864e-06 
    Iter = 20, relRef = 1, res = 6.40946e+06, resAbs = 4.10811e+13, nIters = 34, maxD = 2.37523e+06
    Solving
  0 KSP Residual norm 5.60143e+06 
  1 KSP Residual norm 934064. 
  2 KSP Residual norm 252520. 
  3 KSP Residual norm 87589.3 
  4 KSP Residual norm 37974.4 
  5 KSP Residual norm 18851.1 
  6 KSP Residual norm 9879.23 
  7 KSP Residual norm 4853.74 
  8 KSP Residual norm 2425.87 
  9 KSP Residual norm 1235.89 
 10 KSP Residual norm 656.799 
 11 KSP Residual norm 309.064 
 12 KSP Residual norm 132.731 
 13 KSP Residual norm 56.3633 
 14 KSP Residual norm 27.8616 
 15 KSP Residual norm 15.4886 
 16 KSP Residual norm 8.16767 
 17 KSP Residual norm 3.72157 
 18 KSP Residual norm 1.66472 
 19 KSP Residual norm 0.858874 
 20 KSP Residual norm 0.470517 
 21 KSP Residual norm 0.231237 
 22 KSP Residual norm 0.0993414 
 23 KSP Residual norm 0.0422049 
 24 KSP Residual norm 0.0188759 
 25 KSP Residual norm 0.00825745 
 26 KSP Residual norm 0.00364432 
 27 KSP Residual norm 0.00149965 
 28 KSP Residual norm 0.000699021 
 29 KSP Residual norm 0.000331163 
 30 KSP Residual norm 0.000132251 
 31 KSP Residual norm 5.22115e-05 
 32 KSP Residual norm 1.97766e-05 
 33 KSP Residual norm 6.7005e-06 
 34 KSP Residual norm 2.24864e-06 
    Iter = 21, relRef = 1, res = 6.40946e+06, resAbs = 4.10811e+13, nIters = 34, maxD = 2.48833e+06
    Solving
  0 KSP Residual norm 5.60143e+06 
  1 KSP Residual norm 934064. 
  2 KSP Residual norm 252520. 
  3 KSP Residual norm 87589.3 
  4 KSP Residual norm 37974.4 
  5 KSP Residual norm 18851.1 
  6 KSP Residual norm 9879.23 
  7 KSP Residual norm 4853.74 
  8 KSP Residual norm 2425.87 
  9 KSP Residual norm 1235.89 
 10 KSP Residual norm 656.799 
 11 KSP Residual norm 309.064 
 12 KSP Residual norm 132.731 
 13 KSP Residual norm 56.3633 
 14 KSP Residual norm 27.8616 
 15 KSP Residual norm 15.4886 
 16 KSP Residual norm 8.16767 
 17 KSP Residual norm 3.72157 
 18 KSP Residual norm 1.66472 
 19 KSP Residual norm 0.858874 
 20 KSP Residual norm 0.470517 
 21 KSP Residual norm 0.231237 
 22 KSP Residual norm 0.0993414 
 23 KSP Residual norm 0.0422049 
 24 KSP Residual norm 0.0188759 
 25 KSP Residual norm 0.00825745 
 26 KSP Residual norm 0.00364432 
 27 KSP Residual norm 0.00149965 
 28 KSP Residual norm 0.000699021 
 29 KSP Residual norm 0.000331163 
 30 KSP Residual norm 0.000132251 
 31 KSP Residual norm 5.22115e-05 
 32 KSP Residual norm 1.97766e-05 
 33 KSP Residual norm 6.7005e-06 
 34 KSP Residual norm 2.24864e-06 
    Iter = 22, relRef = 1, res = 6.40946e+06, resAbs = 4.10811e+13, nIters = 34, maxD = 2.60144e+06
    Solving
  0 KSP Residual norm 5.60143e+06 
  1 KSP Residual norm 934064. 
  2 KSP Residual norm 252520. 
  3 KSP Residual norm 87589.3 
  4 KSP Residual norm 37974.4 
  5 KSP Residual norm 18851.1 
  6 KSP Residual norm 9879.23 
  7 KSP Residual norm 4853.74 
  8 KSP Residual norm 2425.87 
  9 KSP Residual norm 1235.89 
 10 KSP Residual norm 656.799 
 11 KSP Residual norm 309.064 
 12 KSP Residual norm 132.731 
 13 KSP Residual norm 56.3633 
 14 KSP Residual norm 27.8616 
 15 KSP Residual norm 15.4886 
 16 KSP Residual norm 8.16767 
 17 KSP Residual norm 3.72157 
 18 KSP Residual norm 1.66472 
 19 KSP Residual norm 0.858874 
 20 KSP Residual norm 0.470517 
 21 KSP Residual norm 0.231237 
 22 KSP Residual norm 0.0993414 
 23 KSP Residual norm 0.0422049 
 24 KSP Residual norm 0.0188759 
 25 KSP Residual norm 0.00825745 
 26 KSP Residual norm 0.00364432 
 27 KSP Residual norm 0.00149965 
 28 KSP Residual norm 0.000699021 
 29 KSP Residual norm 0.000331163 
 30 KSP Residual norm 0.000132251 
 31 KSP Residual norm 5.22115e-05 
 32 KSP Residual norm 1.97766e-05 
 33 KSP Residual norm 6.7005e-06 
 34 KSP Residual norm 2.24864e-06 
    Iter = 23, relRef = 1, res = 6.40946e+06, resAbs = 4.10811e+13, nIters = 34, maxD = 2.71454e+06
    Solving
  0 KSP Residual norm 5.60143e+06 
  1 KSP Residual norm 934064. 
  2 KSP Residual norm 252520. 
  3 KSP Residual norm 87589.3 
  4 KSP Residual norm 37974.4 
  5 KSP Residual norm 18851.1 
  6 KSP Residual norm 9879.23 
  7 KSP Residual norm 4853.74 
  8 KSP Residual norm 2425.87 
  9 KSP Residual norm 1235.89 
 10 KSP Residual norm 656.799 
 11 KSP Residual norm 309.064 
 12 KSP Residual norm 132.731 
 13 KSP Residual norm 56.3633 
 14 KSP Residual norm 27.8616 
 15 KSP Residual norm 15.4886 
 16 KSP Residual norm 8.16767 
 17 KSP Residual norm 3.72157 
 18 KSP Residual norm 1.66472 
 19 KSP Residual norm 0.858874 
 20 KSP Residual norm 0.470517 
 21 KSP Residual norm 0.231237 
 22 KSP Residual norm 0.0993414 
 23 KSP Residual norm 0.0422049 
 24 KSP Residual norm 0.0188759 
 25 KSP Residual norm 0.00825745 
 26 KSP Residual norm 0.00364432 
 27 KSP Residual norm 0.00149965 
 28 KSP Residual norm 0.000699021 
 29 KSP Residual norm 0.000331163 
 30 KSP Residual norm 0.000132251 
 31 KSP Residual norm 5.22115e-05 
 32 KSP Residual norm 1.97766e-05 
 33 KSP Residual norm 6.7005e-06 
 34 KSP Residual norm 2.24864e-06 
    Iter = 24, relRef = 1, res = 6.40946e+06, resAbs = 4.10811e+13, nIters = 34, maxD = 2.82765e+06
    Solving
  0 KSP Residual norm 5.60143e+06 
  1 KSP Residual norm 934064. 
  2 KSP Residual norm 252520. 
  3 KSP Residual norm 87589.3 
  4 KSP Residual norm 37974.4 
  5 KSP Residual norm 18851.1 
  6 KSP Residual norm 9879.23 
  7 KSP Residual norm 4853.74 
  8 KSP Residual norm 2425.87 
  9 KSP Residual norm 1235.89 
 10 KSP Residual norm 656.799 
 11 KSP Residual norm 309.064 
 12 KSP Residual norm 132.731 
 13 KSP Residual norm 56.3633 
 14 KSP Residual norm 27.8616 
 15 KSP Residual norm 15.4886 
 16 KSP Residual norm 8.16767 
 17 KSP Residual norm 3.72157 
 18 KSP Residual norm 1.66472 
 19 KSP Residual norm 0.858874 
 20 KSP Residual norm 0.470517 
 21 KSP Residual norm 0.231237 
 22 KSP Residual norm 0.0993414 
 23 KSP Residual norm 0.0422049 
 24 KSP Residual norm 0.0188759 
 25 KSP Residual norm 0.00825745 
 26 KSP Residual norm 0.00364432 
 27 KSP Residual norm 0.00149965 
 28 KSP Residual norm 0.000699021 
 29 KSP Residual norm 0.000331163 
 30 KSP Residual norm 0.000132251 
 31 KSP Residual norm 5.22115e-05 
 32 KSP Residual norm 1.97766e-05 
 33 KSP Residual norm 6.7005e-06 
 34 KSP Residual norm 2.24864e-06 
    Iter = 25, relRef = 1, res = 6.40946e+06, resAbs = 4.10811e+13, nIters = 34, maxD = 2.94076e+06
    Solving
  0 KSP Residual norm 5.60143e+06 
  1 KSP Residual norm 934064. 
  2 KSP Residual norm 252520. 
  3 KSP Residual norm 87589.3 
  4 KSP Residual norm 37974.4 
  5 KSP Residual norm 18851.1 
  6 KSP Residual norm 9879.23 
  7 KSP Residual norm 4853.74 
  8 KSP Residual norm 2425.87 
  9 KSP Residual norm 1235.89 
 10 KSP Residual norm 656.799 
 11 KSP Residual norm 309.064 
 12 KSP Residual norm 132.731 
 13 KSP Residual norm 56.3633 
 14 KSP Residual norm 27.8616 
 15 KSP Residual norm 15.4886 
 16 KSP Residual norm 8.16767 
 17 KSP Residual norm 3.72157 
 18 KSP Residual norm 1.66472 
 19 KSP Residual norm 0.858874 
 20 KSP Residual norm 0.470517 
 21 KSP Residual norm 0.231237 
 22 KSP Residual norm 0.0993414 
 23 KSP Residual norm 0.0422049 
 24 KSP Residual norm 0.0188759 
 25 KSP Residual norm 0.00825745 
 26 KSP Residual norm 0.00364432 
 27 KSP Residual norm 0.00149965 
 28 KSP Residual norm 0.000699021 
 29 KSP Residual norm 0.000331163 
 30 KSP Residual norm 0.000132251 
 31 KSP Residual norm 5.22115e-05 
 32 KSP Residual norm 1.97766e-05 
 33 KSP Residual norm 6.7005e-06 
 34 KSP Residual norm 2.24864e-06 
    Iter = 26, relRef = 1, res = 6.40946e+06, resAbs = 4.10811e+13, nIters = 34, maxD = 3.05386e+06
    Solving
  0 KSP Residual norm 5.60143e+06 
  1 KSP Residual norm 934064. 
  2 KSP Residual norm 252520. 
  3 KSP Residual norm 87589.3 
  4 KSP Residual norm 37974.4 
  5 KSP Residual norm 18851.1 
  6 KSP Residual norm 9879.23 
  7 KSP Residual norm 4853.74 
  8 KSP Residual norm 2425.87 
  9 KSP Residual norm 1235.89 
 10 KSP Residual norm 656.799 
 11 KSP Residual norm 309.064 
 12 KSP Residual norm 132.731 
 13 KSP Residual norm 56.3633 
 14 KSP Residual norm 27.8616 
 15 KSP Residual norm 15.4886 
 16 KSP Residual norm 8.16767 
 17 KSP Residual norm 3.72157 
 18 KSP Residual norm 1.66472 
 19 KSP Residual norm 0.858874 
 20 KSP Residual norm 0.470517 
 21 KSP Residual norm 0.231237 
 22 KSP Residual norm 0.0993414 
 23 KSP Residual norm 0.0422049 
 24 KSP Residual norm 0.0188759 
 25 KSP Residual norm 0.00825745 
 26 KSP Residual norm 0.00364432 
 27 KSP Residual norm 0.00149965 
 28 KSP Residual norm 0.000699021 
 29 KSP Residual norm 0.000331163 
 30 KSP Residual norm 0.000132251 
 31 KSP Residual norm 5.22115e-05 
 32 KSP Residual norm 1.97766e-05 
 33 KSP Residual norm 6.7005e-06 
 34 KSP Residual norm 2.24864e-06 
    Iter = 27, relRef = 1, res = 6.40946e+06, resAbs = 4.10811e+13, nIters = 34, maxD = 3.16697e+06
    Solving
  0 KSP Residual norm 5.60143e+06 
  1 KSP Residual norm 934064. 
  2 KSP Residual norm 252520. 
  3 KSP Residual norm 87589.3 
  4 KSP Residual norm 37974.4 
  5 KSP Residual norm 18851.1 
  6 KSP Residual norm 9879.23 
  7 KSP Residual norm 4853.74 
  8 KSP Residual norm 2425.87 
  9 KSP Residual norm 1235.89 
 10 KSP Residual norm 656.799 
 11 KSP Residual norm 309.064 
 12 KSP Residual norm 132.731 
 13 KSP Residual norm 56.3633 
 14 KSP Residual norm 27.8616 
 15 KSP Residual norm 15.4886 
 16 KSP Residual norm 8.16767 
 17 KSP Residual norm 3.72157 
 18 KSP Residual norm 1.66472 
 19 KSP Residual norm 0.858874 
 20 KSP Residual norm 0.470517 
 21 KSP Residual norm 0.231237 
 22 KSP Residual norm 0.0993414 
 23 KSP Residual norm 0.0422049 
 24 KSP Residual norm 0.0188759 
 25 KSP Residual norm 0.00825745 
 26 KSP Residual norm 0.00364432 
 27 KSP Residual norm 0.00149965 
 28 KSP Residual norm 0.000699021 
 29 KSP Residual norm 0.000331163 
 30 KSP Residual norm 0.000132251 
 31 KSP Residual norm 5.22115e-05 
 32 KSP Residual norm 1.97766e-05 
 33 KSP Residual norm 6.7005e-06 
 34 KSP Residual norm 2.24864e-06 
    Iter = 28, relRef = 1, res = 6.40946e+06, resAbs = 4.10811e+13, nIters = 34, maxD = 3.28007e+06
    Solving
  0 KSP Residual norm 5.60143e+06 
  1 KSP Residual norm 934064. 
  2 KSP Residual norm 252520. 
  3 KSP Residual norm 87589.3 
  4 KSP Residual norm 37974.4 
  5 KSP Residual norm 18851.1 
  6 KSP Residual norm 9879.23 
  7 KSP Residual norm 4853.74 
  8 KSP Residual norm 2425.87 
  9 KSP Residual norm 1235.89 
 10 KSP Residual norm 656.799 
 11 KSP Residual norm 309.064 
 12 KSP Residual norm 132.731 
 13 KSP Residual norm 56.3633 
 14 KSP Residual norm 27.8616 
 15 KSP Residual norm 15.4886 
 16 KSP Residual norm 8.16767 
 17 KSP Residual norm 3.72157 
 18 KSP Residual norm 1.66472 
 19 KSP Residual norm 0.858874 
 20 KSP Residual norm 0.470517 
 21 KSP Residual norm 0.231237 
 22 KSP Residual norm 0.0993414 
 23 KSP Residual norm 0.0422049 
 24 KSP Residual norm 0.0188759 
 25 KSP Residual norm 0.00825745 
 26 KSP Residual norm 0.00364432 
 27 KSP Residual norm 0.00149965 
 28 KSP Residual norm 0.000699021 
 29 KSP Residual norm 0.000331163 
 30 KSP Residual norm 0.000132251 
 31 KSP Residual norm 5.22115e-05 
 32 KSP Residual norm 1.97766e-05 
 33 KSP Residual norm 6.7005e-06 
 34 KSP Residual norm 2.24864e-06 
    Iter = 29, relRef = 1, res = 6.40946e+06, resAbs = 4.10811e+13, nIters = 34, maxD = 3.39318e+06
    Solving
  0 KSP Residual norm 5.60143e+06 
  1 KSP Residual norm 934064. 
  2 KSP Residual norm 252520. 
  3 KSP Residual norm 87589.3 
  4 KSP Residual norm 37974.4 
  5 KSP Residual norm 18851.1 
  6 KSP Residual norm 9879.23 
  7 KSP Residual norm 4853.74 
  8 KSP Residual norm 2425.87 
  9 KSP Residual norm 1235.89 
 10 KSP Residual norm 656.799 
 11 KSP Residual norm 309.064 
 12 KSP Residual norm 132.731 
 13 KSP Residual norm 56.3633 
 14 KSP Residual norm 27.8616 
 15 KSP Residual norm 15.4886 
 16 KSP Residual norm 8.16767 
 17 KSP Residual norm 3.72157 
 18 KSP Residual norm 1.66472 
 19 KSP Residual norm 0.858874 
 20 KSP Residual norm 0.470517 
 21 KSP Residual norm 0.231237 
 22 KSP Residual norm 0.0993414 
 23 KSP Residual norm 0.0422049 
 24 KSP Residual norm 0.0188759 
 25 KSP Residual norm 0.00825745 
 26 KSP Residual norm 0.00364432 
 27 KSP Residual norm 0.00149965 
 28 KSP Residual norm 0.000699021 
 29 KSP Residual norm 0.000331163 
 30 KSP Residual norm 0.000132251 
 31 KSP Residual norm 5.22115e-05 
 32 KSP Residual norm 1.97766e-05 
 33 KSP Residual norm 6.7005e-06 
 34 KSP Residual norm 2.24864e-06 
    Iter = 30, relRef = 1, res = 6.40946e+06, resAbs = 4.10811e+13, nIters = 34, maxD = 3.50629e+06
    Solving
  0 KSP Residual norm 5.60143e+06 
  1 KSP Residual norm 934064. 
  2 KSP Residual norm 252520. 
  3 KSP Residual norm 87589.3 
  4 KSP Residual norm 37974.4 
  5 KSP Residual norm 18851.1 
  6 KSP Residual norm 9879.23 
  7 KSP Residual norm 4853.74 
  8 KSP Residual norm 2425.87 
  9 KSP Residual norm 1235.89 
 10 KSP Residual norm 656.799 
 11 KSP Residual norm 309.064 
 12 KSP Residual norm 132.731 
 13 KSP Residual norm 56.3633 
 14 KSP Residual norm 27.8616 
 15 KSP Residual norm 15.4886 
 16 KSP Residual norm 8.16767 
 17 KSP Residual norm 3.72157 
 18 KSP Residual norm 1.66472 
 19 KSP Residual norm 0.858874 
 20 KSP Residual norm 0.470517 
 21 KSP Residual norm 0.231237 
 22 KSP Residual norm 0.0993414 
 23 KSP Residual norm 0.0422049 
 24 KSP Residual norm 0.0188759 
 25 KSP Residual norm 0.00825745 
 26 KSP Residual norm 0.00364432 
 27 KSP Residual norm 0.00149965 
 28 KSP Residual norm 0.000699021 
 29 KSP Residual norm 0.000331163 
 30 KSP Residual norm 0.000132251 
 31 KSP Residual norm 5.22115e-05 
 32 KSP Residual norm 1.97766e-05 
 33 KSP Residual norm 6.7005e-06 
 34 KSP Residual norm 2.24864e-06 
    Iter = 31, relRef = 1, res = 6.40946e+06, resAbs = 4.10811e+13, nIters = 34, maxD = 3.61939e+06
    Solving
  0 KSP Residual norm 5.60143e+06 
  1 KSP Residual norm 934064. 
  2 KSP Residual norm 252520. 
  3 KSP Residual norm 87589.3 
  4 KSP Residual norm 37974.4 
  5 KSP Residual norm 18851.1 
  6 KSP Residual norm 9879.23 
  7 KSP Residual norm 4853.74 
  8 KSP Residual norm 2425.87 
  9 KSP Residual norm 1235.89 
 10 KSP Residual norm 656.799 
 11 KSP Residual norm 309.064 
 12 KSP Residual norm 132.731 
 13 KSP Residual norm 56.3633 
 14 KSP Residual norm 27.8616 
 15 KSP Residual norm 15.4886 
 16 KSP Residual norm 8.16767 
 17 KSP Residual norm 3.72157 
 18 KSP Residual norm 1.66472 
 19 KSP Residual norm 0.858874 
 20 KSP Residual norm 0.470517 
 21 KSP Residual norm 0.231237 
 22 KSP Residual norm 0.0993414 
 23 KSP Residual norm 0.0422049 
 24 KSP Residual norm 0.0188759 
 25 KSP Residual norm 0.00825745 
 26 KSP Residual norm 0.00364432 
 27 KSP Residual norm 0.00149965 
 28 KSP Residual norm 0.000699021 
 29 KSP Residual norm 0.000331163 
 30 KSP Residual norm 0.000132251 
 31 KSP Residual norm 5.22115e-05 
 32 KSP Residual norm 1.97766e-05 
 33 KSP Residual norm 6.7005e-06 
 34 KSP Residual norm 2.24864e-06 
    Iter = 32, relRef = 1, res = 6.40946e+06, resAbs = 4.10811e+13, nIters = 34, maxD = 3.7325e+06
    Solving
  0 KSP Residual norm 5.60143e+06 
  1 KSP Residual norm 934064. 
  2 KSP Residual norm 252520. 
  3 KSP Residual norm 87589.3 
  4 KSP Residual norm 37974.4 
  5 KSP Residual norm 18851.1 
  6 KSP Residual norm 9879.23 
  7 KSP Residual norm 4853.74 
  8 KSP Residual norm 2425.87 
  9 KSP Residual norm 1235.89 
 10 KSP Residual norm 656.799 
 11 KSP Residual norm 309.064 
 12 KSP Residual norm 132.731 
 13 KSP Residual norm 56.3633 
 14 KSP Residual norm 27.8616 
 15 KSP Residual norm 15.4886 
 16 KSP Residual norm 8.16767 
 17 KSP Residual norm 3.72157 
 18 KSP Residual norm 1.66472 
 19 KSP Residual norm 0.858874 
 20 KSP Residual norm 0.470517 
 21 KSP Residual norm 0.231237 
 22 KSP Residual norm 0.0993414 
 23 KSP Residual norm 0.0422049 
 24 KSP Residual norm 0.0188759 
 25 KSP Residual norm 0.00825745 
 26 KSP Residual norm 0.00364432 
 27 KSP Residual norm 0.00149965 
 28 KSP Residual norm 0.000699021 
 29 KSP Residual norm 0.000331163 
 30 KSP Residual norm 0.000132251 
 31 KSP Residual norm 5.22115e-05 
 32 KSP Residual norm 1.97766e-05 
 33 KSP Residual norm 6.7005e-06 
 34 KSP Residual norm 2.24864e-06 
    Iter = 33, relRef = 1, res = 6.40946e+06, resAbs = 4.10811e+13, nIters = 34, maxD = 3.8456e+06
    Solving
  0 KSP Residual norm 5.60143e+06 
  1 KSP Residual norm 934064. 
  2 KSP Residual norm 252520. 
  3 KSP Residual norm 87589.3 
  4 KSP Residual norm 37974.4 
  5 KSP Residual norm 18851.1 
  6 KSP Residual norm 9879.23 
  7 KSP Residual norm 4853.74 
  8 KSP Residual norm 2425.87 
  9 KSP Residual norm 1235.89 
 10 KSP Residual norm 656.799 
 11 KSP Residual norm 309.064 
 12 KSP Residual norm 132.731 
 13 KSP Residual norm 56.3633 
 14 KSP Residual norm 27.8616 
 15 KSP Residual norm 15.4886 
 16 KSP Residual norm 8.16767 
 17 KSP Residual norm 3.72157 
 18 KSP Residual norm 1.66472 
 19 KSP Residual norm 0.858874 
 20 KSP Residual norm 0.470517 
 21 KSP Residual norm 0.231237 
 22 KSP Residual norm 0.0993414 
 23 KSP Residual norm 0.0422049 
 24 KSP Residual norm 0.0188759 
 25 KSP Residual norm 0.00825745 
 26 KSP Residual norm 0.00364432 
 27 KSP Residual norm 0.00149965 
 28 KSP Residual norm 0.000699021 
 29 KSP Residual norm 0.000331163 
 30 KSP Residual norm 0.000132251 
 31 KSP Residual norm 5.22115e-05 
 32 KSP Residual norm 1.97766e-05 
 33 KSP Residual norm 6.7005e-06 
 34 KSP Residual norm 2.24864e-06 
    Iter = 34, relRef = 1, res = 6.40946e+06, resAbs = 4.10811e+13, nIters = 34, maxD = 3.95871e+06
    Solving
  0 KSP Residual norm 5.60143e+06 
  1 KSP Residual norm 934064. 
  2 KSP Residual norm 252520. 
  3 KSP Residual norm 87589.3 
  4 KSP Residual norm 37974.4 
  5 KSP Residual norm 18851.1 
  6 KSP Residual norm 9879.23 
  7 KSP Residual norm 4853.74 
  8 KSP Residual norm 2425.87 
  9 KSP Residual norm 1235.89 
 10 KSP Residual norm 656.799 
 11 KSP Residual norm 309.064 
 12 KSP Residual norm 132.731 
 13 KSP Residual norm 56.3633 
 14 KSP Residual norm 27.8616 
 15 KSP Residual norm 15.4886 
 16 KSP Residual norm 8.16767 
 17 KSP Residual norm 3.72157 
 18 KSP Residual norm 1.66472 
 19 KSP Residual norm 0.858874 
 20 KSP Residual norm 0.470517 
 21 KSP Residual norm 0.231237 
 22 KSP Residual norm 0.0993414 
 23 KSP Residual norm 0.0422049 
 24 KSP Residual norm 0.0188759 
 25 KSP Residual norm 0.00825745 
 26 KSP Residual norm 0.00364432 
 27 KSP Residual norm 0.00149965 
 28 KSP Residual norm 0.000699021 
 29 KSP Residual norm 0.000331163 
 30 KSP Residual norm 0.000132251 
 31 KSP Residual norm 5.22115e-05 
 32 KSP Residual norm 1.97766e-05 
 33 KSP Residual norm 6.7005e-06 
 34 KSP Residual norm 2.24864e-06 
    Iter = 35, relRef = 1, res = 6.40946e+06, resAbs = 4.10811e+13, nIters = 34, maxD = 4.07182e+06
    Solving
  0 KSP Residual norm 5.60143e+06 
  1 KSP Residual norm 934064. 
  2 KSP Residual norm 252520. 
  3 KSP Residual norm 87589.3 
  4 KSP Residual norm 37974.4 
  5 KSP Residual norm 18851.1 
  6 KSP Residual norm 9879.23 
  7 KSP Residual norm 4853.74 
  8 KSP Residual norm 2425.87 
  9 KSP Residual norm 1235.89 
 10 KSP Residual norm 656.799 
 11 KSP Residual norm 309.064 
 12 KSP Residual norm 132.731 
 13 KSP Residual norm 56.3633 
 14 KSP Residual norm 27.8616 
 15 KSP Residual norm 15.4886 
 16 KSP Residual norm 8.16767 
 17 KSP Residual norm 3.72157 
 18 KSP Residual norm 1.66472 
 19 KSP Residual norm 0.858874 
 20 KSP Residual norm 0.470517 
 21 KSP Residual norm 0.231237 
 22 KSP Residual norm 0.0993414 
 23 KSP Residual norm 0.0422049 
 24 KSP Residual norm 0.0188759 
 25 KSP Residual norm 0.00825745 
 26 KSP Residual norm 0.00364432 
 27 KSP Residual norm 0.00149965 
 28 KSP Residual norm 0.000699021 
 29 KSP Residual norm 0.000331163 
 30 KSP Residual norm 0.000132251 
 31 KSP Residual norm 5.22115e-05 
 32 KSP Residual norm 1.97766e-05 
 33 KSP Residual norm 6.7005e-06 
 34 KSP Residual norm 2.24864e-06 
    Iter = 36, relRef = 1, res = 6.40946e+06, resAbs = 4.10811e+13, nIters = 34, maxD = 4.18492e+06
    Solving
  0 KSP Residual norm 5.60143e+06 
  1 KSP Residual norm 934064. 
  2 KSP Residual norm 252520. 
  3 KSP Residual norm 87589.3 
  4 KSP Residual norm 37974.4 
  5 KSP Residual norm 18851.1 
  6 KSP Residual norm 9879.23 
  7 KSP Residual norm 4853.74 
  8 KSP Residual norm 2425.87 
  9 KSP Residual norm 1235.89 
 10 KSP Residual norm 656.799 
 11 KSP Residual norm 309.064 
 12 KSP Residual norm 132.731 
 13 KSP Residual norm 56.3633 
 14 KSP Residual norm 27.8616 
 15 KSP Residual norm 15.4886 
 16 KSP Residual norm 8.16767 
 17 KSP Residual norm 3.72157 
 18 KSP Residual norm 1.66472 
 19 KSP Residual norm 0.858874 
 20 KSP Residual norm 0.470517 
 21 KSP Residual norm 0.231237 
 22 KSP Residual norm 0.0993414 
 23 KSP Residual norm 0.0422049 
 24 KSP Residual norm 0.0188759 
 25 KSP Residual norm 0.00825745 
 26 KSP Residual norm 0.00364432 
 27 KSP Residual norm 0.00149965 
 28 KSP Residual norm 0.000699021 
 29 KSP Residual norm 0.000331163 
 30 KSP Residual norm 0.000132251 
 31 KSP Residual norm 5.22115e-05 
 32 KSP Residual norm 1.97766e-05 
 33 KSP Residual norm 6.7005e-06 
 34 KSP Residual norm 2.24864e-06 
    Iter = 37, relRef = 1, res = 6.40946e+06, resAbs = 4.10811e+13, nIters = 34, maxD = 4.29803e+06
    Solving
  0 KSP Residual norm 5.60143e+06 
  1 KSP Residual norm 934064. 
  2 KSP Residual norm 252520. 
  3 KSP Residual norm 87589.3 
  4 KSP Residual norm 37974.4 
  5 KSP Residual norm 18851.1 
  6 KSP Residual norm 9879.23 
  7 KSP Residual norm 4853.74 
  8 KSP Residual norm 2425.87 
  9 KSP Residual norm 1235.89 
 10 KSP Residual norm 656.799 
 11 KSP Residual norm 309.064 
 12 KSP Residual norm 132.731 
 13 KSP Residual norm 56.3633 
 14 KSP Residual norm 27.8616 
 15 KSP Residual norm 15.4886 
 16 KSP Residual norm 8.16767 
 17 KSP Residual norm 3.72157 
 18 KSP Residual norm 1.66472 
 19 KSP Residual norm 0.858874 
 20 KSP Residual norm 0.470517 
 21 KSP Residual norm 0.231237 
 22 KSP Residual norm 0.0993414 
 23 KSP Residual norm 0.0422049 
 24 KSP Residual norm 0.0188759 
 25 KSP Residual norm 0.00825745 
 26 KSP Residual norm 0.00364432 
 27 KSP Residual norm 0.00149965 
 28 KSP Residual norm 0.000699021 
 29 KSP Residual norm 0.000331163 
 30 KSP Residual norm 0.000132251 
 31 KSP Residual norm 5.22115e-05 
 32 KSP Residual norm 1.97766e-05 
 33 KSP Residual norm 6.7005e-06 
 34 KSP Residual norm 2.24864e-06 
    Iter = 38, relRef = 1, res = 6.40946e+06, resAbs = 4.10811e+13, nIters = 34, maxD = 4.41113e+06
    Solving
  0 KSP Residual norm 5.60143e+06 
  1 KSP Residual norm 934064. 
  2 KSP Residual norm 252520. 
  3 KSP Residual norm 87589.3 
  4 KSP Residual norm 37974.4 
  5 KSP Residual norm 18851.1 
  6 KSP Residual norm 9879.23 
  7 KSP Residual norm 4853.74 
  8 KSP Residual norm 2425.87 
  9 KSP Residual norm 1235.89 
 10 KSP Residual norm 656.799 
 11 KSP Residual norm 309.064 
 12 KSP Residual norm 132.731 
 13 KSP Residual norm 56.3633 
 14 KSP Residual norm 27.8616 
 15 KSP Residual norm 15.4886 
 16 KSP Residual norm 8.16767 
 17 KSP Residual norm 3.72157 
 18 KSP Residual norm 1.66472 
 19 KSP Residual norm 0.858874 
 20 KSP Residual norm 0.470517 
 21 KSP Residual norm 0.231237 
 22 KSP Residual norm 0.0993414 
 23 KSP Residual norm 0.0422049 
 24 KSP Residual norm 0.0188759 
 25 KSP Residual norm 0.00825745 
 26 KSP Residual norm 0.00364432 
 27 KSP Residual norm 0.00149965 
 28 KSP Residual norm 0.000699021 
 29 KSP Residual norm 0.000331163 
 30 KSP Residual norm 0.000132251 
 31 KSP Residual norm 5.22115e-05 
 32 KSP Residual norm 1.97766e-05 
 33 KSP Residual norm 6.7005e-06 
 34 KSP Residual norm 2.24864e-06 
    Iter = 39, relRef = 1, res = 6.40946e+06, resAbs = 4.10811e+13, nIters = 34, maxD = 4.52424e+06
    Solving
  0 KSP Residual norm 5.60143e+06 
  1 KSP Residual norm 934064. 
  2 KSP Residual norm 252520. 
  3 KSP Residual norm 87589.3 
  4 KSP Residual norm 37974.4 
  5 KSP Residual norm 18851.1 
  6 KSP Residual norm 9879.23 
  7 KSP Residual norm 4853.74 
  8 KSP Residual norm 2425.87 
  9 KSP Residual norm 1235.89 
 10 KSP Residual norm 656.799 
 11 KSP Residual norm 309.064 
 12 KSP Residual norm 132.731 
 13 KSP Residual norm 56.3633 
 14 KSP Residual norm 27.8616 
 15 KSP Residual norm 15.4886 
 16 KSP Residual norm 8.16767 
 17 KSP Residual norm 3.72157 
 18 KSP Residual norm 1.66472 
 19 KSP Residual norm 0.858874 
 20 KSP Residual norm 0.470517 
 21 KSP Residual norm 0.231237 
 22 KSP Residual norm 0.0993414 
 23 KSP Residual norm 0.0422049 
 24 KSP Residual norm 0.0188759 
 25 KSP Residual norm 0.00825745 
 26 KSP Residual norm 0.00364432 
 27 KSP Residual norm 0.00149965 
 28 KSP Residual norm 0.000699021 
 29 KSP Residual norm 0.000331163 
 30 KSP Residual norm 0.000132251 
 31 KSP Residual norm 5.22115e-05 
 32 KSP Residual norm 1.97766e-05 
 33 KSP Residual norm 6.7005e-06 
 34 KSP Residual norm 2.24864e-06 
    Iter = 40, relRef = 1, res = 6.40946e+06, resAbs = 4.10811e+13, nIters = 34, maxD = 4.63735e+06
    Solving
  0 KSP Residual norm 5.60143e+06 
  1 KSP Residual norm 934064. 
  2 KSP Residual norm 252520. 
  3 KSP Residual norm 87589.3 
  4 KSP Residual norm 37974.4 
  5 KSP Residual norm 18851.1 
  6 KSP Residual norm 9879.23 
  7 KSP Residual norm 4853.74 
  8 KSP Residual norm 2425.87 
  9 KSP Residual norm 1235.89 
 10 KSP Residual norm 656.799 
 11 KSP Residual norm 309.064 
 12 KSP Residual norm 132.731 
 13 KSP Residual norm 56.3633 
 14 KSP Residual norm 27.8616 
 15 KSP Residual norm 15.4886 
 16 KSP Residual norm 8.16767 
 17 KSP Residual norm 3.72157 
 18 KSP Residual norm 1.66472 
 19 KSP Residual norm 0.858874 
 20 KSP Residual norm 0.470517 
 21 KSP Residual norm 0.231237 
 22 KSP Residual norm 0.0993414 
 23 KSP Residual norm 0.0422049 
 24 KSP Residual norm 0.0188759 
 25 KSP Residual norm 0.00825745 
 26 KSP Residual norm 0.00364432 
 27 KSP Residual norm 0.00149965 
 28 KSP Residual norm 0.000699021 
 29 KSP Residual norm 0.000331163 
 30 KSP Residual norm 0.000132251 
 31 KSP Residual norm 5.22115e-05 
 32 KSP Residual norm 1.97766e-05 
 33 KSP Residual norm 6.7005e-06 
 34 KSP Residual norm 2.24864e-06 
    Iter = 41, relRef = 1, res = 6.40946e+06, resAbs = 4.10811e+13, nIters = 34, maxD = 4.75045e+06
    Solving
  0 KSP Residual norm 5.60143e+06 
  1 KSP Residual norm 934064. 
  2 KSP Residual norm 252520. 
  3 KSP Residual norm 87589.3 
  4 KSP Residual norm 37974.4 
  5 KSP Residual norm 18851.1 
  6 KSP Residual norm 9879.23 
  7 KSP Residual norm 4853.74 
  8 KSP Residual norm 2425.87 
  9 KSP Residual norm 1235.89 
 10 KSP Residual norm 656.799 
 11 KSP Residual norm 309.064 
 12 KSP Residual norm 132.731 
 13 KSP Residual norm 56.3633 
 14 KSP Residual norm 27.8616 
 15 KSP Residual norm 15.4886 
 16 KSP Residual norm 8.16767 
 17 KSP Residual norm 3.72157 
 18 KSP Residual norm 1.66472 
 19 KSP Residual norm 0.858874 
 20 KSP Residual norm 0.470517 
 21 KSP Residual norm 0.231237 
 22 KSP Residual norm 0.0993414 
 23 KSP Residual norm 0.0422049 
 24 KSP Residual norm 0.0188759 
 25 KSP Residual norm 0.00825745 
 26 KSP Residual norm 0.00364432 
 27 KSP Residual norm 0.00149965 
 28 KSP Residual norm 0.000699021 
 29 KSP Residual norm 0.000331163 
 30 KSP Residual norm 0.000132251 
 31 KSP Residual norm 5.22115e-05 
 32 KSP Residual norm 1.97766e-05 
 33 KSP Residual norm 6.7005e-06 
 34 KSP Residual norm 2.24864e-06 
    Iter = 42, relRef = 1, res = 6.40946e+06, resAbs = 4.10811e+13, nIters = 34, maxD = 4.86356e+06
    Solving
  0 KSP Residual norm 5.60143e+06 
  1 KSP Residual norm 934064. 
  2 KSP Residual norm 252520. 
  3 KSP Residual norm 87589.3 
  4 KSP Residual norm 37974.4 
  5 KSP Residual norm 18851.1 
  6 KSP Residual norm 9879.23 
  7 KSP Residual norm 4853.74 
  8 KSP Residual norm 2425.87 
  9 KSP Residual norm 1235.89 
 10 KSP Residual norm 656.799 
 11 KSP Residual norm 309.064 
 12 KSP Residual norm 132.731 
 13 KSP Residual norm 56.3633 
 14 KSP Residual norm 27.8616 
 15 KSP Residual norm 15.4886 
 16 KSP Residual norm 8.16767 
 17 KSP Residual norm 3.72157 
 18 KSP Residual norm 1.66472 
 19 KSP Residual norm 0.858874 
 20 KSP Residual norm 0.470517 
 21 KSP Residual norm 0.231237 
 22 KSP Residual norm 0.0993414 
 23 KSP Residual norm 0.0422049 
 24 KSP Residual norm 0.0188759 
 25 KSP Residual norm 0.00825745 
 26 KSP Residual norm 0.00364432 
 27 KSP Residual norm 0.00149965 
 28 KSP Residual norm 0.000699021 
 29 KSP Residual norm 0.000331163 
 30 KSP Residual norm 0.000132251 
 31 KSP Residual norm 5.22115e-05 
 32 KSP Residual norm 1.97766e-05 
 33 KSP Residual norm 6.7005e-06 
 34 KSP Residual norm 2.24864e-06 
    Iter = 43, relRef = 1, res = 6.40946e+06, resAbs = 4.10811e+13, nIters = 34, maxD = 4.97666e+06
    Solving
  0 KSP Residual norm 5.60143e+06 
  1 KSP Residual norm 934064. 
  2 KSP Residual norm 252520. 
  3 KSP Residual norm 87589.3 
  4 KSP Residual norm 37974.4 
  5 KSP Residual norm 18851.1 
  6 KSP Residual norm 9879.23 
  7 KSP Residual norm 4853.74 
  8 KSP Residual norm 2425.87 
  9 KSP Residual norm 1235.89 
 10 KSP Residual norm 656.799 
 11 KSP Residual norm 309.064 
 12 KSP Residual norm 132.731 
 13 KSP Residual norm 56.3633 
 14 KSP Residual norm 27.8616 
 15 KSP Residual norm 15.4886 
 16 KSP Residual norm 8.16767 
 17 KSP Residual norm 3.72157 
 18 KSP Residual norm 1.66472 
 19 KSP Residual norm 0.858874 
 20 KSP Residual norm 0.470517 
 21 KSP Residual norm 0.231237 
 22 KSP Residual norm 0.0993414 
 23 KSP Residual norm 0.0422049 
 24 KSP Residual norm 0.0188759 
 25 KSP Residual norm 0.00825745 
 26 KSP Residual norm 0.00364432 
 27 KSP Residual norm 0.00149965 
 28 KSP Residual norm 0.000699021 
 29 KSP Residual norm 0.000331163 
 30 KSP Residual norm 0.000132251 
 31 KSP Residual norm 5.22115e-05 
 32 KSP Residual norm 1.97766e-05 
 33 KSP Residual norm 6.7005e-06 
 34 KSP Residual norm 2.24864e-06 
    Iter = 44, relRef = 1, res = 6.40946e+06, resAbs = 4.10811e+13, nIters = 34, maxD = 5.08977e+06
    Solving
  0 KSP Residual norm 5.60143e+06 
  1 KSP Residual norm 934064. 
  2 KSP Residual norm 252520. 
  3 KSP Residual norm 87589.3 
  4 KSP Residual norm 37974.4 
  5 KSP Residual norm 18851.1 
  6 KSP Residual norm 9879.23 
  7 KSP Residual norm 4853.74 
  8 KSP Residual norm 2425.87 
  9 KSP Residual norm 1235.89 
 10 KSP Residual norm 656.799 
 11 KSP Residual norm 309.064 
 12 KSP Residual norm 132.731 
 13 KSP Residual norm 56.3633 
 14 KSP Residual norm 27.8616 
 15 KSP Residual norm 15.4886 
 16 KSP Residual norm 8.16767 
 17 KSP Residual norm 3.72157 
 18 KSP Residual norm 1.66472 
 19 KSP Residual norm 0.858874 
 20 KSP Residual norm 0.470517 
 21 KSP Residual norm 0.231237 
 22 KSP Residual norm 0.0993414 
 23 KSP Residual norm 0.0422049 
 24 KSP Residual norm 0.0188759 
 25 KSP Residual norm 0.00825745 
 26 KSP Residual norm 0.00364432 
 27 KSP Residual norm 0.00149965 
 28 KSP Residual norm 0.000699021 
 29 KSP Residual norm 0.000331163 
 30 KSP Residual norm 0.000132251 
 31 KSP Residual norm 5.22115e-05 
 32 KSP Residual norm 1.97766e-05 
 33 KSP Residual norm 6.7005e-06 
 34 KSP Residual norm 2.24864e-06 
    Iter = 45, relRef = 1, res = 6.40946e+06, resAbs = 4.10811e+13, nIters = 34, maxD = 5.20288e+06
    Solving
  0 KSP Residual norm 5.60143e+06 
  1 KSP Residual norm 934064. 
  2 KSP Residual norm 252520. 
  3 KSP Residual norm 87589.3 
  4 KSP Residual norm 37974.4 
  5 KSP Residual norm 18851.1 
  6 KSP Residual norm 9879.23 
  7 KSP Residual norm 4853.74 
  8 KSP Residual norm 2425.87 
  9 KSP Residual norm 1235.89 
 10 KSP Residual norm 656.799 
 11 KSP Residual norm 309.064 
 12 KSP Residual norm 132.731 
 13 KSP Residual norm 56.3633 
 14 KSP Residual norm 27.8616 
 15 KSP Residual norm 15.4886 
 16 KSP Residual norm 8.16767 
 17 KSP Residual norm 3.72157 
 18 KSP Residual norm 1.66472 
 19 KSP Residual norm 0.858874 
 20 KSP Residual norm 0.470517 
 21 KSP Residual norm 0.231237 
 22 KSP Residual norm 0.0993414 
 23 KSP Residual norm 0.0422049 
 24 KSP Residual norm 0.0188759 
 25 KSP Residual norm 0.00825745 
 26 KSP Residual norm 0.00364432 
 27 KSP Residual norm 0.00149965 
 28 KSP Residual norm 0.000699021 
 29 KSP Residual norm 0.000331163 
 30 KSP Residual norm 0.000132251 
 31 KSP Residual norm 5.22115e-05 
 32 KSP Residual norm 1.97766e-05 
 33 KSP Residual norm 6.7005e-06 
 34 KSP Residual norm 2.24864e-06 
    Iter = 46, relRef = 1, res = 6.40946e+06, resAbs = 4.10811e+13, nIters = 34, maxD = 5.31598e+06
    Solving
  0 KSP Residual norm 5.60143e+06 
  1 KSP Residual norm 934064. 
  2 KSP Residual norm 252520. 
  3 KSP Residual norm 87589.3 
  4 KSP Residual norm 37974.4 
  5 KSP Residual norm 18851.1 
  6 KSP Residual norm 9879.23 
  7 KSP Residual norm 4853.74 
  8 KSP Residual norm 2425.87 
  9 KSP Residual norm 1235.89 
 10 KSP Residual norm 656.799 
 11 KSP Residual norm 309.064 
 12 KSP Residual norm 132.731 
 13 KSP Residual norm 56.3633 
 14 KSP Residual norm 27.8616 
 15 KSP Residual norm 15.4886 
 16 KSP Residual norm 8.16767 
 17 KSP Residual norm 3.72157 
 18 KSP Residual norm 1.66472 
 19 KSP Residual norm 0.858874 
 20 KSP Residual norm 0.470517 
 21 KSP Residual norm 0.231237 
 22 KSP Residual norm 0.0993414 
 23 KSP Residual norm 0.0422049 
 24 KSP Residual norm 0.0188759 
 25 KSP Residual norm 0.00825745 
 26 KSP Residual norm 0.00364432 
 27 KSP Residual norm 0.00149965 
 28 KSP Residual norm 0.000699021 
 29 KSP Residual norm 0.000331163 
 30 KSP Residual norm 0.000132251 
 31 KSP Residual norm 5.22115e-05 
 32 KSP Residual norm 1.97766e-05 
 33 KSP Residual norm 6.7005e-06 
 34 KSP Residual norm 2.24864e-06 
    Iter = 47, relRef = 1, res = 6.40946e+06, resAbs = 4.10811e+13, nIters = 34, maxD = 5.42909e+06
    Solving
  0 KSP Residual norm 5.60143e+06 
  1 KSP Residual norm 934064. 
  2 KSP Residual norm 252520. 
  3 KSP Residual norm 87589.3 
  4 KSP Residual norm 37974.4 
  5 KSP Residual norm 18851.1 
  6 KSP Residual norm 9879.23 
  7 KSP Residual norm 4853.74 
  8 KSP Residual norm 2425.87 
  9 KSP Residual norm 1235.89 
 10 KSP Residual norm 656.799 
 11 KSP Residual norm 309.064 
 12 KSP Residual norm 132.731 
 13 KSP Residual norm 56.3633 
 14 KSP Residual norm 27.8616 
 15 KSP Residual norm 15.4886 
 16 KSP Residual norm 8.16767 
 17 KSP Residual norm 3.72157 
 18 KSP Residual norm 1.66472 
 19 KSP Residual norm 0.858874 
 20 KSP Residual norm 0.470517 
 21 KSP Residual norm 0.231237 
 22 KSP Residual norm 0.0993414 
 23 KSP Residual norm 0.0422049 
 24 KSP Residual norm 0.0188759 
 25 KSP Residual norm 0.00825745 
 26 KSP Residual norm 0.00364432 
 27 KSP Residual norm 0.00149965 
 28 KSP Residual norm 0.000699021 
 29 KSP Residual norm 0.000331163 
 30 KSP Residual norm 0.000132251 
 31 KSP Residual norm 5.22115e-05 
 32 KSP Residual norm 1.97766e-05 
 33 KSP Residual norm 6.7005e-06 
 34 KSP Residual norm 2.24864e-06 
    Iter = 48, relRef = 1, res = 6.40946e+06, resAbs = 4.10811e+13, nIters = 34, maxD = 5.54219e+06
    Solving
  0 KSP Residual norm 5.60143e+06 
  1 KSP Residual norm 934064. 
  2 KSP Residual norm 252520. 
  3 KSP Residual norm 87589.3 
  4 KSP Residual norm 37974.4 
  5 KSP Residual norm 18851.1 
  6 KSP Residual norm 9879.23 
  7 KSP Residual norm 4853.74 
  8 KSP Residual norm 2425.87 
  9 KSP Residual norm 1235.89 
 10 KSP Residual norm 656.799 
 11 KSP Residual norm 309.064 
 12 KSP Residual norm 132.731 
 13 KSP Residual norm 56.3633 
 14 KSP Residual norm 27.8616 
 15 KSP Residual norm 15.4886 
 16 KSP Residual norm 8.16767 
 17 KSP Residual norm 3.72157 
 18 KSP Residual norm 1.66472 
 19 KSP Residual norm 0.858874 
 20 KSP Residual norm 0.470517 
 21 KSP Residual norm 0.231237 
 22 KSP Residual norm 0.0993414 
 23 KSP Residual norm 0.0422049 
 24 KSP Residual norm 0.0188759 
 25 KSP Residual norm 0.00825745 
 26 KSP Residual norm 0.00364432 
 27 KSP Residual norm 0.00149965 
 28 KSP Residual norm 0.000699021 
 29 KSP Residual norm 0.000331163 
 30 KSP Residual norm 0.000132251 
 31 KSP Residual norm 5.22115e-05 
 32 KSP Residual norm 1.97766e-05 
 33 KSP Residual norm 6.7005e-06 
 34 KSP Residual norm 2.24864e-06 
    Iter = 49, relRef = 1, res = 6.40946e+06, resAbs = 4.10811e+13, nIters = 34, maxD = 5.6553e+06
    Solving
  0 KSP Residual norm 5.60143e+06 
  1 KSP Residual norm 934064. 
  2 KSP Residual norm 252520. 
  3 KSP Residual norm 87589.3 
  4 KSP Residual norm 37974.4 
  5 KSP Residual norm 18851.1 
  6 KSP Residual norm 9879.23 
  7 KSP Residual norm 4853.74 
  8 KSP Residual norm 2425.87 
  9 KSP Residual norm 1235.89 
 10 KSP Residual norm 656.799 
 11 KSP Residual norm 309.064 
 12 KSP Residual norm 132.731 
 13 KSP Residual norm 56.3633 
 14 KSP Residual norm 27.8616 
 15 KSP Residual norm 15.4886 
 16 KSP Residual norm 8.16767 
 17 KSP Residual norm 3.72157 
 18 KSP Residual norm 1.66472 
 19 KSP Residual norm 0.858874 
 20 KSP Residual norm 0.470517 
 21 KSP Residual norm 0.231237 
 22 KSP Residual norm 0.0993414 
 23 KSP Residual norm 0.0422049 
 24 KSP Residual norm 0.0188759 
 25 KSP Residual norm 0.00825745 
 26 KSP Residual norm 0.00364432 
 27 KSP Residual norm 0.00149965 
 28 KSP Residual norm 0.000699021 
 29 KSP Residual norm 0.000331163 
 30 KSP Residual norm 0.000132251 
 31 KSP Residual norm 5.22115e-05 
 32 KSP Residual norm 1.97766e-05 
 33 KSP Residual norm 6.7005e-06 
 34 KSP Residual norm 2.24864e-06 
    Iter = 50, relRef = 1, res = 6.40946e+06, resAbs = 4.10811e+13, nIters = 34, maxD = 5.76841e+06
    Solving
  0 KSP Residual norm 5.60143e+06 
  1 KSP Residual norm 934064. 
  2 KSP Residual norm 252520. 
  3 KSP Residual norm 87589.3 
  4 KSP Residual norm 37974.4 
  5 KSP Residual norm 18851.1 
  6 KSP Residual norm 9879.23 
  7 KSP Residual norm 4853.74 
  8 KSP Residual norm 2425.87 
  9 KSP Residual norm 1235.89 
 10 KSP Residual norm 656.799 
 11 KSP Residual norm 309.064 
 12 KSP Residual norm 132.731 
 13 KSP Residual norm 56.3633 
 14 KSP Residual norm 27.8616 
 15 KSP Residual norm 15.4886 
 16 KSP Residual norm 8.16767 
 17 KSP Residual norm 3.72157 
 18 KSP Residual norm 1.66472 
 19 KSP Residual norm 0.858874 
 20 KSP Residual norm 0.470517 
 21 KSP Residual norm 0.231237 
 22 KSP Residual norm 0.0993414 
 23 KSP Residual norm 0.0422049 
 24 KSP Residual norm 0.0188759 
 25 KSP Residual norm 0.00825745 
 26 KSP Residual norm 0.00364432 
 27 KSP Residual norm 0.00149965 
 28 KSP Residual norm 0.000699021 
 29 KSP Residual norm 0.000331163 
 30 KSP Residual norm 0.000132251 
 31 KSP Residual norm 5.22115e-05 
 32 KSP Residual norm 1.97766e-05 
 33 KSP Residual norm 6.7005e-06 
 34 KSP Residual norm 2.24864e-06 
    Iter = 51, relRef = 1, res = 6.40946e+06, resAbs = 4.10811e+13, nIters = 34, maxD = 5.88151e+06
    Solving
  0 KSP Residual norm 5.60143e+06 
  1 KSP Residual norm 934064. 
  2 KSP Residual norm 252520. 
  3 KSP Residual norm 87589.3 
  4 KSP Residual norm 37974.4 
  5 KSP Residual norm 18851.1 
  6 KSP Residual norm 9879.23 
  7 KSP Residual norm 4853.74 
  8 KSP Residual norm 2425.87 
  9 KSP Residual norm 1235.89 
 10 KSP Residual norm 656.799 
 11 KSP Residual norm 309.064 
 12 KSP Residual norm 132.731 
 13 KSP Residual norm 56.3633 
 14 KSP Residual norm 27.8616 
 15 KSP Residual norm 15.4886 
 16 KSP Residual norm 8.16767 
 17 KSP Residual norm 3.72157 
 18 KSP Residual norm 1.66472 
 19 KSP Residual norm 0.858874 
 20 KSP Residual norm 0.470517 
 21 KSP Residual norm 0.231237 
 22 KSP Residual norm 0.0993414 
 23 KSP Residual norm 0.0422049 
 24 KSP Residual norm 0.0188759 
 25 KSP Residual norm 0.00825745 
 26 KSP Residual norm 0.00364432 
 27 KSP Residual norm 0.00149965 
 28 KSP Residual norm 0.000699021 
 29 KSP Residual norm 0.000331163 
 30 KSP Residual norm 0.000132251 
 31 KSP Residual norm 5.22115e-05 
 32 KSP Residual norm 1.97766e-05 
 33 KSP Residual norm 6.7005e-06 
 34 KSP Residual norm 2.24864e-06 
    Iter = 52, relRef = 1, res = 6.40946e+06, resAbs = 4.10811e+13, nIters = 34, maxD = 5.99462e+06
    Solving
  0 KSP Residual norm 5.60143e+06 
  1 KSP Residual norm 934064. 
  2 KSP Residual norm 252520. 
  3 KSP Residual norm 87589.3 
  4 KSP Residual norm 37974.4 
  5 KSP Residual norm 18851.1 
  6 KSP Residual norm 9879.23 
  7 KSP Residual norm 4853.74 
  8 KSP Residual norm 2425.87 
  9 KSP Residual norm 1235.89 
 10 KSP Residual norm 656.799 
 11 KSP Residual norm 309.064 
 12 KSP Residual norm 132.731 
 13 KSP Residual norm 56.3633 
 14 KSP Residual norm 27.8616 
 15 KSP Residual norm 15.4886 
 16 KSP Residual norm 8.16767 
 17 KSP Residual norm 3.72157 
 18 KSP Residual norm 1.66472 
 19 KSP Residual norm 0.858874 
 20 KSP Residual norm 0.470517 
 21 KSP Residual norm 0.231237 
 22 KSP Residual norm 0.0993414 
 23 KSP Residual norm 0.0422049 
 24 KSP Residual norm 0.0188759 
 25 KSP Residual norm 0.00825745 
 26 KSP Residual norm 0.00364432 
 27 KSP Residual norm 0.00149965 
 28 KSP Residual norm 0.000699021 
 29 KSP Residual norm 0.000331163 
 30 KSP Residual norm 0.000132251 
 31 KSP Residual norm 5.22115e-05 
 32 KSP Residual norm 1.97766e-05 
 33 KSP Residual norm 6.7005e-06 
 34 KSP Residual norm 2.24864e-06 
    Iter = 53, relRef = 1, res = 6.40946e+06, resAbs = 4.10811e+13, nIters = 34, maxD = 6.10772e+06
    Solving
  0 KSP Residual norm 5.60143e+06 
  1 KSP Residual norm 934064. 
  2 KSP Residual norm 252520. 
  3 KSP Residual norm 87589.3 
  4 KSP Residual norm 37974.4 
  5 KSP Residual norm 18851.1 
  6 KSP Residual norm 9879.23 
  7 KSP Residual norm 4853.74 
  8 KSP Residual norm 2425.87 
  9 KSP Residual norm 1235.89 
 10 KSP Residual norm 656.799 
 11 KSP Residual norm 309.064 
 12 KSP Residual norm 132.731 
 13 KSP Residual norm 56.3633 
 14 KSP Residual norm 27.8616 
 15 KSP Residual norm 15.4886 
 16 KSP Residual norm 8.16767 
 17 KSP Residual norm 3.72157 
 18 KSP Residual norm 1.66472 
 19 KSP Residual norm 0.858874 
 20 KSP Residual norm 0.470517 
 21 KSP Residual norm 0.231237 
 22 KSP Residual norm 0.0993414 
 23 KSP Residual norm 0.0422049 
 24 KSP Residual norm 0.0188759 
 25 KSP Residual norm 0.00825745 
 26 KSP Residual norm 0.00364432 
 27 KSP Residual norm 0.00149965 
 28 KSP Residual norm 0.000699021 
 29 KSP Residual norm 0.000331163 
 30 KSP Residual norm 0.000132251 
 31 KSP Residual norm 5.22115e-05 
 32 KSP Residual norm 1.97766e-05 
 33 KSP Residual norm 6.7005e-06 
 34 KSP Residual norm 2.24864e-06 
    Iter = 54, relRef = 1, res = 6.40946e+06, resAbs = 4.10811e+13, nIters = 34, maxD = 6.22083e+06
    Solving
  0 KSP Residual norm 5.60143e+06 
  1 KSP Residual norm 934064. 
  2 KSP Residual norm 252520. 
  3 KSP Residual norm 87589.3 
  4 KSP Residual norm 37974.4 
  5 KSP Residual norm 18851.1 
  6 KSP Residual norm 9879.23 
  7 KSP Residual norm 4853.74 
  8 KSP Residual norm 2425.87 
  9 KSP Residual norm 1235.89 
 10 KSP Residual norm 656.799 
 11 KSP Residual norm 309.064 
 12 KSP Residual norm 132.731 
 13 KSP Residual norm 56.3633 
 14 KSP Residual norm 27.8616 
 15 KSP Residual norm 15.4886 
 16 KSP Residual norm 8.16767 
 17 KSP Residual norm 3.72157 
 18 KSP Residual norm 1.66472 
 19 KSP Residual norm 0.858874 
 20 KSP Residual norm 0.470517 
 21 KSP Residual norm 0.231237 
 22 KSP Residual norm 0.0993414 
 23 KSP Residual norm 0.0422049 
 24 KSP Residual norm 0.0188759 
 25 KSP Residual norm 0.00825745 
 26 KSP Residual norm 0.00364432 
 27 KSP Residual norm 0.00149965 
 28 KSP Residual norm 0.000699021 
 29 KSP Residual norm 0.000331163 
 30 KSP Residual norm 0.000132251 
 31 KSP Residual norm 5.22115e-05 
 32 KSP Residual norm 1.97766e-05 
 33 KSP Residual norm 6.7005e-06 
 34 KSP Residual norm 2.24864e-06 
    Iter = 55, relRef = 1, res = 6.40946e+06, resAbs = 4.10811e+13, nIters = 34, maxD = 6.33394e+06
    Solving
  0 KSP Residual norm 5.60143e+06 
  1 KSP Residual norm 934064. 
  2 KSP Residual norm 252520. 
  3 KSP Residual norm 87589.3 
  4 KSP Residual norm 37974.4 
  5 KSP Residual norm 18851.1 
  6 KSP Residual norm 9879.23 
  7 KSP Residual norm 4853.74 
  8 KSP Residual norm 2425.87 
  9 KSP Residual norm 1235.89 
 10 KSP Residual norm 656.799 
 11 KSP Residual norm 309.064 
 12 KSP Residual norm 132.731 
 13 KSP Residual norm 56.3633 
 14 KSP Residual norm 27.8616 
 15 KSP Residual norm 15.4886 
 16 KSP Residual norm 8.16767 
 17 KSP Residual norm 3.72157 
 18 KSP Residual norm 1.66472 
 19 KSP Residual norm 0.858874 
 20 KSP Residual norm 0.470517 
 21 KSP Residual norm 0.231237 
 22 KSP Residual norm 0.0993414 
 23 KSP Residual norm 0.0422049 
 24 KSP Residual norm 0.0188759 
 25 KSP Residual norm 0.00825745 
 26 KSP Residual norm 0.00364432 
 27 KSP Residual norm 0.00149965 
 28 KSP Residual norm 0.000699021 
 29 KSP Residual norm 0.000331163 
 30 KSP Residual norm 0.000132251 
 31 KSP Residual norm 5.22115e-05 
 32 KSP Residual norm 1.97766e-05 
 33 KSP Residual norm 6.7005e-06 
 34 KSP Residual norm 2.24864e-06 
    Iter = 56, relRef = 1, res = 6.40946e+06, resAbs = 4.10811e+13, nIters = 34, maxD = 6.44704e+06
    Solving
  0 KSP Residual norm 5.60143e+06 
  1 KSP Residual norm 934064. 
  2 KSP Residual norm 252520. 
  3 KSP Residual norm 87589.3 
  4 KSP Residual norm 37974.4 
  5 KSP Residual norm 18851.1 
  6 KSP Residual norm 9879.23 
  7 KSP Residual norm 4853.74 
  8 KSP Residual norm 2425.87 
  9 KSP Residual norm 1235.89 
 10 KSP Residual norm 656.799 
 11 KSP Residual norm 309.064 
 12 KSP Residual norm 132.731 
 13 KSP Residual norm 56.3633 
 14 KSP Residual norm 27.8616 
 15 KSP Residual norm 15.4886 
 16 KSP Residual norm 8.16767 
 17 KSP Residual norm 3.72157 
 18 KSP Residual norm 1.66472 
 19 KSP Residual norm 0.858874 
 20 KSP Residual norm 0.470517 
 21 KSP Residual norm 0.231237 
 22 KSP Residual norm 0.0993414 
 23 KSP Residual norm 0.0422049 
 24 KSP Residual norm 0.0188759 
 25 KSP Residual norm 0.00825745 
 26 KSP Residual norm 0.00364432 
 27 KSP Residual norm 0.00149965 
 28 KSP Residual norm 0.000699021 
 29 KSP Residual norm 0.000331163 
 30 KSP Residual norm 0.000132251 
 31 KSP Residual norm 5.22115e-05 
 32 KSP Residual norm 1.97766e-05 
 33 KSP Residual norm 6.7005e-06 
 34 KSP Residual norm 2.24864e-06 
    Iter = 57, relRef = 1, res = 6.40946e+06, resAbs = 4.10811e+13, nIters = 34, maxD = 6.56015e+06
    Solving
  0 KSP Residual norm 5.60143e+06 
  1 KSP Residual norm 934064. 
  2 KSP Residual norm 252520. 
  3 KSP Residual norm 87589.3 
  4 KSP Residual norm 37974.4 
  5 KSP Residual norm 18851.1 
  6 KSP Residual norm 9879.23 
  7 KSP Residual norm 4853.74 
  8 KSP Residual norm 2425.87 
  9 KSP Residual norm 1235.89 
 10 KSP Residual norm 656.799 
 11 KSP Residual norm 309.064 
 12 KSP Residual norm 132.731 
 13 KSP Residual norm 56.3633 
 14 KSP Residual norm 27.8616 
 15 KSP Residual norm 15.4886 
 16 KSP Residual norm 8.16767 
 17 KSP Residual norm 3.72157 
 18 KSP Residual norm 1.66472 
 19 KSP Residual norm 0.858874 
 20 KSP Residual norm 0.470517 
 21 KSP Residual norm 0.231237 
 22 KSP Residual norm 0.0993414 
 23 KSP Residual norm 0.0422049 
 24 KSP Residual norm 0.0188759 
 25 KSP Residual norm 0.00825745 
 26 KSP Residual norm 0.00364432 
 27 KSP Residual norm 0.00149965 
 28 KSP Residual norm 0.000699021 
 29 KSP Residual norm 0.000331163 
 30 KSP Residual norm 0.000132251 
 31 KSP Residual norm 5.22115e-05 
 32 KSP Residual norm 1.97766e-05 
 33 KSP Residual norm 6.7005e-06 
 34 KSP Residual norm 2.24864e-06 
    Iter = 58, relRef = 1, res = 6.40946e+06, resAbs = 4.10811e+13, nIters = 34, maxD = 6.67325e+06
    Solving
  0 KSP Residual norm 5.60143e+06 
  1 KSP Residual norm 934064. 
  2 KSP Residual norm 252520. 
  3 KSP Residual norm 87589.3 
  4 KSP Residual norm 37974.4 
  5 KSP Residual norm 18851.1 
  6 KSP Residual norm 9879.23 
  7 KSP Residual norm 4853.74 
  8 KSP Residual norm 2425.87 
  9 KSP Residual norm 1235.89 
 10 KSP Residual norm 656.799 
 11 KSP Residual norm 309.064 
 12 KSP Residual norm 132.731 
 13 KSP Residual norm 56.3633 
 14 KSP Residual norm 27.8616 
 15 KSP Residual norm 15.4886 
 16 KSP Residual norm 8.16767 
 17 KSP Residual norm 3.72157 
 18 KSP Residual norm 1.66472 
 19 KSP Residual norm 0.858874 
 20 KSP Residual norm 0.470517 
 21 KSP Residual norm 0.231237 
 22 KSP Residual norm 0.0993414 
 23 KSP Residual norm 0.0422049 
 24 KSP Residual norm 0.0188759 
 25 KSP Residual norm 0.00825745 
 26 KSP Residual norm 0.00364432 
 27 KSP Residual norm 0.00149965 
 28 KSP Residual norm 0.000699021 
 29 KSP Residual norm 0.000331163 
 30 KSP Residual norm 0.000132251 
 31 KSP Residual norm 5.22115e-05 
 32 KSP Residual norm 1.97766e-05 
 33 KSP Residual norm 6.7005e-06 
 34 KSP Residual norm 2.24864e-06 
    Iter = 59, relRef = 1, res = 6.40946e+06, resAbs = 4.10811e+13, nIters = 34, maxD = 6.78636e+06
    Solving
  0 KSP Residual norm 5.60143e+06 
  1 KSP Residual norm 934064. 
  2 KSP Residual norm 252520. 
  3 KSP Residual norm 87589.3 
  4 KSP Residual norm 37974.4 
  5 KSP Residual norm 18851.1 
  6 KSP Residual norm 9879.23 
  7 KSP Residual norm 4853.74 
  8 KSP Residual norm 2425.87 
  9 KSP Residual norm 1235.89 
 10 KSP Residual norm 656.799 
 11 KSP Residual norm 309.064 
 12 KSP Residual norm 132.731 
 13 KSP Residual norm 56.3633 
 14 KSP Residual norm 27.8616 
 15 KSP Residual norm 15.4886 
 16 KSP Residual norm 8.16767 
 17 KSP Residual norm 3.72157 
 18 KSP Residual norm 1.66472 
 19 KSP Residual norm 0.858874 
 20 KSP Residual norm 0.470517 
 21 KSP Residual norm 0.231237 
 22 KSP Residual norm 0.0993414 
 23 KSP Residual norm 0.0422049 
 24 KSP Residual norm 0.0188759 
 25 KSP Residual norm 0.00825745 
 26 KSP Residual norm 0.00364432 
 27 KSP Residual norm 0.00149965 
 28 KSP Residual norm 0.000699021 
 29 KSP Residual norm 0.000331163 
 30 KSP Residual norm 0.000132251 
 31 KSP Residual norm 5.22115e-05 
 32 KSP Residual norm 1.97766e-05 
 33 KSP Residual norm 6.7005e-06 
 34 KSP Residual norm 2.24864e-06 
    Iter = 60, relRef = 1, res = 6.40946e+06, resAbs = 4.10811e+13, nIters = 34, maxD = 6.89947e+06
    Solving
  0 KSP Residual norm 5.60143e+06 
  1 KSP Residual norm 934064. 
  2 KSP Residual norm 252520. 
  3 KSP Residual norm 87589.3 
  4 KSP Residual norm 37974.4 
  5 KSP Residual norm 18851.1 
  6 KSP Residual norm 9879.23 
  7 KSP Residual norm 4853.74 
  8 KSP Residual norm 2425.87 
  9 KSP Residual norm 1235.89 
 10 KSP Residual norm 656.799 
 11 KSP Residual norm 309.064 
 12 KSP Residual norm 132.731 
 13 KSP Residual norm 56.3633 
 14 KSP Residual norm 27.8616 
 15 KSP Residual norm 15.4886 
 16 KSP Residual norm 8.16767 
 17 KSP Residual norm 3.72157 
 18 KSP Residual norm 1.66472 
 19 KSP Residual norm 0.858874 
 20 KSP Residual norm 0.470517 
 21 KSP Residual norm 0.231237 
 22 KSP Residual norm 0.0993414 
 23 KSP Residual norm 0.0422049 
 24 KSP Residual norm 0.0188759 
 25 KSP Residual norm 0.00825745 
 26 KSP Residual norm 0.00364432 
 27 KSP Residual norm 0.00149965 
[...]
  7 KSP Residual norm 4853.74 
  8 KSP Residual norm 2425.87 
  9 KSP Residual norm 1235.89 
 10 KSP Residual norm 656.799 
 11 KSP Residual norm 309.064 
 12 KSP Residual norm 132.731 
 13 KSP Residual norm 56.3633 
 14 KSP Residual norm 27.8616 
 15 KSP Residual norm 15.4886 
 16 KSP Residual norm 8.16767 
 17 KSP Residual norm 3.72157 
 18 KSP Residual norm 1.66472 
 19 KSP Residual norm 0.858874 
 20 KSP Residual norm 0.470517 
 21 KSP Residual norm 0.231237 
 22 KSP Residual norm 0.0993414 
 23 KSP Residual norm 0.0422049 
 24 KSP Residual norm 0.0188759 
 25 KSP Residual norm 0.00825745 
 26 KSP Residual norm 0.00364432 
 27 KSP Residual norm 0.00149965 
 28 KSP Residual norm 0.000699021 
 29 KSP Residual norm 0.000331163 
 30 KSP Residual norm 0.000132251 
 31 KSP Residual norm 5.22115e-05 
 32 KSP Residual norm 1.97766e-05 
 33 KSP Residual norm 6.7005e-06 
 34 KSP Residual norm 2.24864e-06 
    Iter = 84, relRef = 1, res = 6.40946e+06, resAbs = 4.10811e+13, nIters = 34, maxD = 9.61401e+06
    Solving
  0 KSP Residual norm 5.60143e+06 
  1 KSP Residual norm 934064. 
  2 KSP Residual norm 252520. 
  3 KSP Residual norm 87589.3 
  4 KSP Residual norm 37974.4 
  5 KSP Residual norm 18851.1 
  6 KSP Residual norm 9879.23 
  7 KSP Residual norm 4853.74 
  8 KSP Residual norm 2425.87 
  9 KSP Residual norm 1235.89 
 10 KSP Residual norm 656.799 
 11 KSP Residual norm 309.064 
 12 KSP Residual norm 132.731 
 13 KSP Residual norm 56.3633 
 14 KSP Residual norm 27.8616 
 15 KSP Residual norm 15.4886 
 16 KSP Residual norm 8.16767 
 17 KSP Residual norm 3.72157 
 18 KSP Residual norm 1.66472 
 19 KSP Residual norm 0.858874 
 20 KSP Residual norm 0.470517 
 21 KSP Residual norm 0.231237 
 22 KSP Residual norm 0.0993414 
 23 KSP Residual norm 0.0422049 
 24 KSP Residual norm 0.0188759 
 25 KSP Residual norm 0.00825745 
 26 KSP Residual norm 0.00364432 
 27 KSP Residual norm 0.00149965 
 28 KSP Residual norm 0.000699021 
 29 KSP Residual norm 0.000331163 
 30 KSP Residual norm 0.000132251 
 31 KSP Residual norm 5.22115e-05 
 32 KSP Residual norm 1.97766e-05 
 33 KSP Residual norm 6.7005e-06 
 34 KSP Residual norm 2.24864e-06 
    Iter = 85, relRef = 1, res = 6.40946e+06, resAbs = 4.10811e+13, nIters = 34, maxD = 9.72712e+06
    Solving
  0 KSP Residual norm 5.60143e+06 
  1 KSP Residual norm 934064. 
  2 KSP Residual norm 252520. 
  3 KSP Residual norm 87589.3 
  4 KSP Residual norm 37974.4 
  5 KSP Residual norm 18851.1 
  6 KSP Residual norm 9879.23 
  7 KSP Residual norm 4853.74 
  8 KSP Residual norm 2425.87 
  9 KSP Residual norm 1235.89 
 10 KSP Residual norm 656.799 
 11 KSP Residual norm 309.064 
 12 KSP Residual norm 132.731 
 13 KSP Residual norm 56.3633 
 14 KSP Residual norm 27.8616 
 15 KSP Residual norm 15.4886 
 16 KSP Residual norm 8.16767 
 17 KSP Residual norm 3.72157 
 18 KSP Residual norm 1.66472 
 19 KSP Residual norm 0.858874 
 20 KSP Residual norm 0.470517 
 21 KSP Residual norm 0.231237 
 22 KSP Residual norm 0.0993414 
 23 KSP Residual norm 0.0422049 
 24 KSP Residual norm 0.0188759 
 25 KSP Residual norm 0.00825745 
 26 KSP Residual norm 0.00364432 
 27 KSP Residual norm 0.00149965 
 28 KSP Residual norm 0.000699021 
 29 KSP Residual norm 0.000331163 
 30 KSP Residual norm 0.000132251 
 31 KSP Residual norm 5.22115e-05 
 32 KSP Residual norm 1.97766e-05 
 33 KSP Residual norm 6.7005e-06 
 34 KSP Residual norm 2.24864e-06 
    Iter = 86, relRef = 1, res = 6.40946e+06, resAbs = 4.10811e+13, nIters = 34, maxD = 9.84022e+06
    Solving
  0 KSP Residual norm 5.60143e+06 
  1 KSP Residual norm 934064. 
  2 KSP Residual norm 252520. 
  3 KSP Residual norm 87589.3 
  4 KSP Residual norm 37974.4 
  5 KSP Residual norm 18851.1 
  6 KSP Residual norm 9879.23 
  7 KSP Residual norm 4853.74 
  8 KSP Residual norm 2425.87 
  9 KSP Residual norm 1235.89 
 10 KSP Residual norm 656.799 
 11 KSP Residual norm 309.064 
 12 KSP Residual norm 132.731 
 13 KSP Residual norm 56.3633 
 14 KSP Residual norm 27.8616 
 15 KSP Residual norm 15.4886 
 16 KSP Residual norm 8.16767 
 17 KSP Residual norm 3.72157 
 18 KSP Residual norm 1.66472 
 19 KSP Residual norm 0.858874 
 20 KSP Residual norm 0.470517 
 21 KSP Residual norm 0.231237 
 22 KSP Residual norm 0.0993414 
 23 KSP Residual norm 0.0422049 
 24 KSP Residual norm 0.0188759 
 25 KSP Residual norm 0.00825745 
 26 KSP Residual norm 0.00364432 
 27 KSP Residual norm 0.00149965 
 28 KSP Residual norm 0.000699021 
 29 KSP Residual norm 0.000331163 
 30 KSP Residual norm 0.000132251 
 31 KSP Residual norm 5.22115e-05 
 32 KSP Residual norm 1.97766e-05 
 33 KSP Residual norm 6.7005e-06 
 34 KSP Residual norm 2.24864e-06 
    Iter = 87, relRef = 1, res = 6.40946e+06, resAbs = 4.10811e+13, nIters = 34, maxD = 9.95333e+06
    Solving
  0 KSP Residual norm 5.60143e+06 
  1 KSP Residual norm 934064. 
  2 KSP Residual norm 252520. 
  3 KSP Residual norm 87589.3 
  4 KSP Residual norm 37974.4 
  5 KSP Residual norm 18851.1 
  6 KSP Residual norm 9879.23 
  7 KSP Residual norm 4853.74 
  8 KSP Residual norm 2425.87 
  9 KSP Residual norm 1235.89 
 10 KSP Residual norm 656.799 
 11 KSP Residual norm 309.064 
 12 KSP Residual norm 132.731 
 13 KSP Residual norm 56.3633 
 14 KSP Residual norm 27.8616 
 15 KSP Residual norm 15.4886 
 16 KSP Residual norm 8.16767 
 17 KSP Residual norm 3.72157 
 18 KSP Residual norm 1.66472 
 19 KSP Residual norm 0.858874 
 20 KSP Residual norm 0.470517 
 21 KSP Residual norm 0.231237 
 22 KSP Residual norm 0.0993414 
 23 KSP Residual norm 0.0422049 
 24 KSP Residual norm 0.0188759 
 25 KSP Residual norm 0.00825745 
 26 KSP Residual norm 0.00364432 
 27 KSP Residual norm 0.00149965 
 28 KSP Residual norm 0.000699021 
 29 KSP Residual norm 0.000331163 
 30 KSP Residual norm 0.000132251 
 31 KSP Residual norm 5.22115e-05 
 32 KSP Residual norm 1.97766e-05 
 33 KSP Residual norm 6.7005e-06 
 34 KSP Residual norm 2.24864e-06 
    Iter = 88, relRef = 1, res = 6.40946e+06, resAbs = 4.10811e+13, nIters = 34, maxD = 1.00664e+07
    Solving
  0 KSP Residual norm 5.60143e+06 
  1 KSP Residual norm 934064. 
  2 KSP Residual norm 252520. 
  3 KSP Residual norm 87589.3 
  4 KSP Residual norm 37974.4 
  5 KSP Residual norm 18851.1 
  6 KSP Residual norm 9879.23 
  7 KSP Residual norm 4853.74 
  8 KSP Residual norm 2425.87 
  9 KSP Residual norm 1235.89 
 10 KSP Residual norm 656.799 
 11 KSP Residual norm 309.064 
 12 KSP Residual norm 132.731 
 13 KSP Residual norm 56.3633 
 14 KSP Residual norm 27.8616 
 15 KSP Residual norm 15.4886 
 16 KSP Residual norm 8.16767 
 17 KSP Residual norm 3.72157 
 18 KSP Residual norm 1.66472 
 19 KSP Residual norm 0.858874 
 20 KSP Residual norm 0.470517 
 21 KSP Residual norm 0.231237 
 22 KSP Residual norm 0.0993414 
 23 KSP Residual norm 0.0422049 
 24 KSP Residual norm 0.0188759 
 25 KSP Residual norm 0.00825745 
 26 KSP Residual norm 0.00364432 
 27 KSP Residual norm 0.00149965 
 28 KSP Residual norm 0.000699021 
 29 KSP Residual norm 0.000331163 
 30 KSP Residual norm 0.000132251 
 31 KSP Residual norm 5.22115e-05 
 32 KSP Residual norm 1.97766e-05 
 33 KSP Residual norm 6.7005e-06 
 34 KSP Residual norm 2.24864e-06 
    Iter = 89, relRef = 1, res = 6.40946e+06, resAbs = 4.10811e+13, nIters = 34, maxD = 1.01795e+07
    Solving
  0 KSP Residual norm 5.60143e+06 
  1 KSP Residual norm 934064. 
  2 KSP Residual norm 252520. 
  3 KSP Residual norm 87589.3 
  4 KSP Residual norm 37974.4 
  5 KSP Residual norm 18851.1 
  6 KSP Residual norm 9879.23 
  7 KSP Residual norm 4853.74 
  8 KSP Residual norm 2425.87 
  9 KSP Residual norm 1235.89 
 10 KSP Residual norm 656.799 
 11 KSP Residual norm 309.064 
 12 KSP Residual norm 132.731 
 13 KSP Residual norm 56.3633 
 14 KSP Residual norm 27.8616 
 15 KSP Residual norm 15.4886 
 16 KSP Residual norm 8.16767 
 17 KSP Residual norm 3.72157 
 18 KSP Residual norm 1.66472 
 19 KSP Residual norm 0.858874 
 20 KSP Residual norm 0.470517 
 21 KSP Residual norm 0.231237 
 22 KSP Residual norm 0.0993414 
 23 KSP Residual norm 0.0422049 
 24 KSP Residual norm 0.0188759 
 25 KSP Residual norm 0.00825745 
 26 KSP Residual norm 0.00364432 
 27 KSP Residual norm 0.00149965 
 28 KSP Residual norm 0.000699021 
 29 KSP Residual norm 0.000331163 
 30 KSP Residual norm 0.000132251 
 31 KSP Residual norm 5.22115e-05 
 32 KSP Residual norm 1.97766e-05 
 33 KSP Residual norm 6.7005e-06 
 34 KSP Residual norm 2.24864e-06 
    Iter = 90, relRef = 1, res = 6.40946e+06, resAbs = 4.10811e+13, nIters = 34, maxD = 1.02926e+07
    Solving
  0 KSP Residual norm 5.60143e+06 
  1 KSP Residual norm 934064. 
  2 KSP Residual norm 252520. 
  3 KSP Residual norm 87589.3 
  4 KSP Residual norm 37974.4 
  5 KSP Residual norm 18851.1 
  6 KSP Residual norm 9879.23 
  7 KSP Residual norm 4853.74 
  8 KSP Residual norm 2425.87 
  9 KSP Residual norm 1235.89 
 10 KSP Residual norm 656.799 
 11 KSP Residual norm 309.064 
 12 KSP Residual norm 132.731 
 13 KSP Residual norm 56.3633 
 14 KSP Residual norm 27.8616 
 15 KSP Residual norm 15.4886 
 16 KSP Residual norm 8.16767 
 17 KSP Residual norm 3.72157 
 18 KSP Residual norm 1.66472 
 19 KSP Residual norm 0.858874 
 20 KSP Residual norm 0.470517 
 21 KSP Residual norm 0.231237 
 22 KSP Residual norm 0.0993414 
 23 KSP Residual norm 0.0422049 
 24 KSP Residual norm 0.0188759 
 25 KSP Residual norm 0.00825745 
 26 KSP Residual norm 0.00364432 
 27 KSP Residual norm 0.00149965 
 28 KSP Residual norm 0.000699021 
 29 KSP Residual norm 0.000331163 
 30 KSP Residual norm 0.000132251 
 31 KSP Residual norm 5.22115e-05 
 32 KSP Residual norm 1.97766e-05 
 33 KSP Residual norm 6.7005e-06 
 34 KSP Residual norm 2.24864e-06 
    Iter = 91, relRef = 1, res = 6.40946e+06, resAbs = 4.10811e+13, nIters = 34, maxD = 1.04058e+07
    Solving
  0 KSP Residual norm 5.60143e+06 
  1 KSP Residual norm 934064. 
  2 KSP Residual norm 252520. 
  3 KSP Residual norm 87589.3 
  4 KSP Residual norm 37974.4 
  5 KSP Residual norm 18851.1 
  6 KSP Residual norm 9879.23 
  7 KSP Residual norm 4853.74 
  8 KSP Residual norm 2425.87 
  9 KSP Residual norm 1235.89 
 10 KSP Residual norm 656.799 
 11 KSP Residual norm 309.064 
 12 KSP Residual norm 132.731 
 13 KSP Residual norm 56.3633 
 14 KSP Residual norm 27.8616 
 15 KSP Residual norm 15.4886 
 16 KSP Residual norm 8.16767 
 17 KSP Residual norm 3.72157 
 18 KSP Residual norm 1.66472 
 19 KSP Residual norm 0.858874 
 20 KSP Residual norm 0.470517 
 21 KSP Residual norm 0.231237 
 22 KSP Residual norm 0.0993414 
 23 KSP Residual norm 0.0422049 
 24 KSP Residual norm 0.0188759 
 25 KSP Residual norm 0.00825745 
 26 KSP Residual norm 0.00364432 
 27 KSP Residual norm 0.00149965 
 28 KSP Residual norm 0.000699021 
 29 KSP Residual norm 0.000331163 
 30 KSP Residual norm 0.000132251 
 31 KSP Residual norm 5.22115e-05 
 32 KSP Residual norm 1.97766e-05 
 33 KSP Residual norm 6.7005e-06 
 34 KSP Residual norm 2.24864e-06 
    Iter = 92, relRef = 1, res = 6.40946e+06, resAbs = 4.10811e+13, nIters = 34, maxD = 1.05189e+07
    Solving
  0 KSP Residual norm 5.60143e+06 
  1 KSP Residual norm 934064. 
  2 KSP Residual norm 252520. 
  3 KSP Residual norm 87589.3 
  4 KSP Residual norm 37974.4 
  5 KSP Residual norm 18851.1 
  6 KSP Residual norm 9879.23 
  7 KSP Residual norm 4853.74 
  8 KSP Residual norm 2425.87 
  9 KSP Residual norm 1235.89 
 10 KSP Residual norm 656.799 
 11 KSP Residual norm 309.064 
 12 KSP Residual norm 132.731 
 13 KSP Residual norm 56.3633 
 14 KSP Residual norm 27.8616 
 15 KSP Residual norm 15.4886 
 16 KSP Residual norm 8.16767 
 17 KSP Residual norm 3.72157 
 18 KSP Residual norm 1.66472 
 19 KSP Residual norm 0.858874 
 20 KSP Residual norm 0.470517 
 21 KSP Residual norm 0.231237 
 22 KSP Residual norm 0.0993414 
 23 KSP Residual norm 0.0422049 
 24 KSP Residual norm 0.0188759 
 25 KSP Residual norm 0.00825745 
 26 KSP Residual norm 0.00364432 
 27 KSP Residual norm 0.00149965 
 28 KSP Residual norm 0.000699021 
 29 KSP Residual norm 0.000331163 
 30 KSP Residual norm 0.000132251 
 31 KSP Residual norm 5.22115e-05 
 32 KSP Residual norm 1.97766e-05 
 33 KSP Residual norm 6.7005e-06 
 34 KSP Residual norm 2.24864e-06 
    Iter = 93, relRef = 1, res = 6.40946e+06, resAbs = 4.10811e+13, nIters = 34, maxD = 1.0632e+07
    Solving
  0 KSP Residual norm 5.60143e+06 
  1 KSP Residual norm 934064. 
  2 KSP Residual norm 252520. 
  3 KSP Residual norm 87589.3 
  4 KSP Residual norm 37974.4 
  5 KSP Residual norm 18851.1 
  6 KSP Residual norm 9879.23 
  7 KSP Residual norm 4853.74 
  8 KSP Residual norm 2425.87 
  9 KSP Residual norm 1235.89 
 10 KSP Residual norm 656.799 
 11 KSP Residual norm 309.064 
 12 KSP Residual norm 132.731 
 13 KSP Residual norm 56.3633 
 14 KSP Residual norm 27.8616 
 15 KSP Residual norm 15.4886 
 16 KSP Residual norm 8.16767 
 17 KSP Residual norm 3.72157 
 18 KSP Residual norm 1.66472 
 19 KSP Residual norm 0.858874 
 20 KSP Residual norm 0.470517 
 21 KSP Residual norm 0.231237 
 22 KSP Residual norm 0.0993414 
 23 KSP Residual norm 0.0422049 
 24 KSP Residual norm 0.0188759 
 25 KSP Residual norm 0.00825745 
 26 KSP Residual norm 0.00364432 
 27 KSP Residual norm 0.00149965 
 28 KSP Residual norm 0.000699021 
 29 KSP Residual norm 0.000331163 
 30 KSP Residual norm 0.000132251 
 31 KSP Residual norm 5.22115e-05 
 32 KSP Residual norm 1.97766e-05 
 33 KSP Residual norm 6.7005e-06 
 34 KSP Residual norm 2.24864e-06 
    Iter = 94, relRef = 1, res = 6.40946e+06, resAbs = 4.10811e+13, nIters = 34, maxD = 1.07451e+07
    Solving
  0 KSP Residual norm 5.60143e+06 
  1 KSP Residual norm 934064. 
  2 KSP Residual norm 252520. 
  3 KSP Residual norm 87589.3 
  4 KSP Residual norm 37974.4 
  5 KSP Residual norm 18851.1 
  6 KSP Residual norm 9879.23 
  7 KSP Residual norm 4853.74 
  8 KSP Residual norm 2425.87 
  9 KSP Residual norm 1235.89 
 10 KSP Residual norm 656.799 
 11 KSP Residual norm 309.064 
 12 KSP Residual norm 132.731 
 13 KSP Residual norm 56.3633 
 14 KSP Residual norm 27.8616 
 15 KSP Residual norm 15.4886 
 16 KSP Residual norm 8.16767 
 17 KSP Residual norm 3.72157 
 18 KSP Residual norm 1.66472 
 19 KSP Residual norm 0.858874 
 20 KSP Residual norm 0.470517 
 21 KSP Residual norm 0.231237 
 22 KSP Residual norm 0.0993414 
 23 KSP Residual norm 0.0422049 
 24 KSP Residual norm 0.0188759 
 25 KSP Residual norm 0.00825745 
 26 KSP Residual norm 0.00364432 
 27 KSP Residual norm 0.00149965 
 28 KSP Residual norm 0.000699021 
 29 KSP Residual norm 0.000331163 
 30 KSP Residual norm 0.000132251 
 31 KSP Residual norm 5.22115e-05 
 32 KSP Residual norm 1.97766e-05 
 33 KSP Residual norm 6.7005e-06 
 34 KSP Residual norm 2.24864e-06 
    Iter = 95, relRef = 1, res = 6.40946e+06, resAbs = 4.10811e+13, nIters = 34, maxD = 1.08582e+07
    Solving
  0 KSP Residual norm 5.60143e+06 
  1 KSP Residual norm 934064. 
  2 KSP Residual norm 252520. 
  3 KSP Residual norm 87589.3 
  4 KSP Residual norm 37974.4 
  5 KSP Residual norm 18851.1 
  6 KSP Residual norm 9879.23 
  7 KSP Residual norm 4853.74 
  8 KSP Residual norm 2425.87 
  9 KSP Residual norm 1235.89 
 10 KSP Residual norm 656.799 
 11 KSP Residual norm 309.064 
 12 KSP Residual norm 132.731 
 13 KSP Residual norm 56.3633 
 14 KSP Residual norm 27.8616 
 15 KSP Residual norm 15.4886 
 16 KSP Residual norm 8.16767 
 17 KSP Residual norm 3.72157 
 18 KSP Residual norm 1.66472 
 19 KSP Residual norm 0.858874 
 20 KSP Residual norm 0.470517 
 21 KSP Residual norm 0.231237 
 22 KSP Residual norm 0.0993414 
 23 KSP Residual norm 0.0422049 
 24 KSP Residual norm 0.0188759 
 25 KSP Residual norm 0.00825745 
 26 KSP Residual norm 0.00364432 
 27 KSP Residual norm 0.00149965 
 28 KSP Residual norm 0.000699021 
 29 KSP Residual norm 0.000331163 
 30 KSP Residual norm 0.000132251 
 31 KSP Residual norm 5.22115e-05 
 32 KSP Residual norm 1.97766e-05 
 33 KSP Residual norm 6.7005e-06 
 34 KSP Residual norm 2.24864e-06 
    Iter = 96, relRef = 1, res = 6.40946e+06, resAbs = 4.10811e+13, nIters = 34, maxD = 1.09713e+07
    Solving
  0 KSP Residual norm 5.60143e+06 
  1 KSP Residual norm 934064. 
  2 KSP Residual norm 252520. 
  3 KSP Residual norm 87589.3 
  4 KSP Residual norm 37974.4 
  5 KSP Residual norm 18851.1 
  6 KSP Residual norm 9879.23 
  7 KSP Residual norm 4853.74 
  8 KSP Residual norm 2425.87 
  9 KSP Residual norm 1235.89 
 10 KSP Residual norm 656.799 
 11 KSP Residual norm 309.064 
 12 KSP Residual norm 132.731 
 13 KSP Residual norm 56.3633 
 14 KSP Residual norm 27.8616 
 15 KSP Residual norm 15.4886 
 16 KSP Residual norm 8.16767 
 17 KSP Residual norm 3.72157 
 18 KSP Residual norm 1.66472 
 19 KSP Residual norm 0.858874 
 20 KSP Residual norm 0.470517 
 21 KSP Residual norm 0.231237 
 22 KSP Residual norm 0.0993414 
 23 KSP Residual norm 0.0422049 
 24 KSP Residual norm 0.0188759 
 25 KSP Residual norm 0.00825745 
 26 KSP Residual norm 0.00364432 
 27 KSP Residual norm 0.00149965 
 28 KSP Residual norm 0.000699021 
 29 KSP Residual norm 0.000331163 
 30 KSP Residual norm 0.000132251 
 31 KSP Residual norm 5.22115e-05 
 32 KSP Residual norm 1.97766e-05 
 33 KSP Residual norm 6.7005e-06 
 34 KSP Residual norm 2.24864e-06 
    Iter = 97, relRef = 1, res = 6.40946e+06, resAbs = 4.10811e+13, nIters = 34, maxD = 1.10844e+07
    Solving
  0 KSP Residual norm 5.60143e+06 
  1 KSP Residual norm 934064. 
  2 KSP Residual norm 252520. 
  3 KSP Residual norm 87589.3 
  4 KSP Residual norm 37974.4 
  5 KSP Residual norm 18851.1 
  6 KSP Residual norm 9879.23 
  7 KSP Residual norm 4853.74 
  8 KSP Residual norm 2425.87 
  9 KSP Residual norm 1235.89 
 10 KSP Residual norm 656.799 
 11 KSP Residual norm 309.064 
 12 KSP Residual norm 132.731 
 13 KSP Residual norm 56.3633 
 14 KSP Residual norm 27.8616 
 15 KSP Residual norm 15.4886 
 16 KSP Residual norm 8.16767 
 17 KSP Residual norm 3.72157 
 18 KSP Residual norm 1.66472 
 19 KSP Residual norm 0.858874 
 20 KSP Residual norm 0.470517 
 21 KSP Residual norm 0.231237 
 22 KSP Residual norm 0.0993414 
 23 KSP Residual norm 0.0422049 
 24 KSP Residual norm 0.0188759 
 25 KSP Residual norm 0.00825745 
 26 KSP Residual norm 0.00364432 
 27 KSP Residual norm 0.00149965 
 28 KSP Residual norm 0.000699021 
 29 KSP Residual norm 0.000331163 
 30 KSP Residual norm 0.000132251 
 31 KSP Residual norm 5.22115e-05 
 32 KSP Residual norm 1.97766e-05 
 33 KSP Residual norm 6.7005e-06 
 34 KSP Residual norm 2.24864e-06 
    Iter = 98, relRef = 1, res = 6.40946e+06, resAbs = 4.10811e+13, nIters = 34, maxD = 1.11975e+07
    Solving
  0 KSP Residual norm 5.60143e+06 
  1 KSP Residual norm 934064. 
  2 KSP Residual norm 252520. 
  3 KSP Residual norm 87589.3 
  4 KSP Residual norm 37974.4 
  5 KSP Residual norm 18851.1 
  6 KSP Residual norm 9879.23 
  7 KSP Residual norm 4853.74 
  8 KSP Residual norm 2425.87 
  9 KSP Residual norm 1235.89 
 10 KSP Residual norm 656.799 
 11 KSP Residual norm 309.064 
 12 KSP Residual norm 132.731 
 13 KSP Residual norm 56.3633 
 14 KSP Residual norm 27.8616 
 15 KSP Residual norm 15.4886 
 16 KSP Residual norm 8.16767 
 17 KSP Residual norm 3.72157 
 18 KSP Residual norm 1.66472 
 19 KSP Residual norm 0.858874 
 20 KSP Residual norm 0.470517 
 21 KSP Residual norm 0.231237 
 22 KSP Residual norm 0.0993414 
 23 KSP Residual norm 0.0422049 
 24 KSP Residual norm 0.0188759 
 25 KSP Residual norm 0.00825745 
 26 KSP Residual norm 0.00364432 
 27 KSP Residual norm 0.00149965 
 28 KSP Residual norm 0.000699021 
 29 KSP Residual norm 0.000331163 
 30 KSP Residual norm 0.000132251 
 31 KSP Residual norm 5.22115e-05 
 32 KSP Residual norm 1.97766e-05 
 33 KSP Residual norm 6.7005e-06 
 34 KSP Residual norm 2.24864e-06 
    Iter = 99, relRef = 1, res = 6.40946e+06, resAbs = 4.10811e+13, nIters = 34, maxD = 1.13106e+07
--> FOAM Warning : Max iterations reached within the momentum Newton-Raphson loop
Max pEpsilonEq = 1.37552e+08
Max epsilonEq = 1.44374e+08
Max sigmaEq (von Mises stress) = 3.3317e+19
ExecutionTime = 495.01 s  ClockTime = 536 s

The momentum equation converged in all time-steps


End

